 xtb: 6.7.1 (edcfbbe)
          01052609063D

239236  0     0  0            999 V2000
   14.1100   23.4200   45.3800 N   0  0  0  0  0  0  0  0  0  0  0  0
   13.6000   22.6900   45.8600 H   0  0  0  0  0  0  0  0  0  0  0  0
   14.9400   23.0600   44.2500 C   0  0  0  0  0  0  0  0  0  0  0  0
   14.9000   23.9800   43.6500 H   0  0  0  0  0  0  0  0  0  0  0  0
   16.3600   22.6600   44.6400 C   0  0  0  0  0  0  0  0  0  0  0  0
   16.8000   23.3800   45.3300 H   0  0  0  0  0  0  0  0  0  0  0  0
   16.8900   22.7200   43.6900 H   0  0  0  0  0  0  0  0  0  0  0  0
   16.6000   21.2300   45.0700 C   0  0  0  0  0  0  0  0  0  0  0  0
   16.8600   20.2600   44.0900 C   0  0  0  0  0  0  0  0  0  0  0  0
   16.9000   20.4700   43.0300 H   0  0  0  0  0  0  0  0  0  0  0  0
   17.2400   18.9800   44.5000 C   0  0  0  0  0  0  0  0  0  0  0  0
   17.3700   18.1300   43.8400 H   0  0  0  0  0  0  0  0  0  0  0  0
   17.4400   18.7100   45.8700 C   0  0  0  0  0  0  0  0  0  0  0  0
   17.9000   17.5000   46.3000 O   0  0  0  0  0  0  0  0  0  0  0  0
   17.7600   16.7400   45.7200 H   0  0  0  0  0  0  0  0  0  0  0  0
   17.1700   19.7100   46.8200 C   0  0  0  0  0  0  0  0  0  0  0  0
   17.2200   19.4600   47.8700 H   0  0  0  0  0  0  0  0  0  0  0  0
   16.7800   21.0000   46.4400 C   0  0  0  0  0  0  0  0  0  0  0  0
   16.4900   21.7300   47.1800 H   0  0  0  0  0  0  0  0  0  0  0  0
   14.3100   21.9700   43.4000 C   0  0  0  0  0  0  0  0  0  0  0  0
   13.7100   21.0700   43.9800 O   0  0  0  0  0  0  0  0  0  0  0  0
   15.9000   15.0800   37.3000 N   0  0  0  0  0  0  0  0  0  0  0  0
   16.2900   16.0000   37.4800 H   0  0  0  0  0  0  0  0  0  0  0  0
   16.6400   13.9900   37.9100 C   0  0  0  0  0  0  0  0  0  0  0  0
   16.2400   13.0700   37.4900 H   0  0  0  0  0  0  0  0  0  0  0  0
   18.1100   14.1200   37.5600 C   0  0  0  0  0  0  0  0  0  0  0  0
   18.3100   14.0400   36.4900 H   0  0  0  0  0  0  0  0  0  0  0  0
   18.6600   13.2600   37.9300 H   0  0  0  0  0  0  0  0  0  0  0  0
   18.7300   15.3600   38.1600 C   0  0  0  0  0  0  0  0  0  0  0  0
   18.9200   16.5300   37.4100 C   0  0  0  0  0  0  0  0  0  0  0  0
   18.4900   16.5000   36.4200 H   0  0  0  0  0  0  0  0  0  0  0  0
   19.7900   17.5700   37.7600 C   0  0  0  0  0  0  0  0  0  0  0  0
   19.8600   18.3800   37.0500 H   0  0  0  0  0  0  0  0  0  0  0  0
   20.2300   17.6300   39.0800 C   0  0  0  0  0  0  0  0  0  0  0  0
   20.7100   18.4900   39.5200 H   0  0  0  0  0  0  0  0  0  0  0  0
   19.9900   16.5200   39.9000 C   0  0  0  0  0  0  0  0  0  0  0  0
   20.4200   16.5000   40.8900 H   0  0  0  0  0  0  0  0  0  0  0  0
   19.3300   15.3800   39.4300 C   0  0  0  0  0  0  0  0  0  0  0  0
   19.1800   14.4900   40.0100 H   0  0  0  0  0  0  0  0  0  0  0  0
   16.2100   13.9000   39.3700 C   0  0  0  0  0  0  0  0  0  0  0  0
   16.0900   12.8000   39.9000 O   0  0  0  0  0  0  0  0  0  0  0  0
   16.0900   15.0600   40.0300 N   0  0  0  0  0  0  0  0  0  0  0  0
   16.3200   15.9000   39.5100 H   0  0  0  0  0  0  0  0  0  0  0  0
   15.6100   15.0500   41.4000 C   0  0  0  0  0  0  0  0  0  0  0  0
   14.8700   14.2600   41.5500 H   0  0  0  0  0  0  0  0  0  0  0  0
   16.8400   14.8600   42.2900 C   0  0  0  0  0  0  0  0  0  0  0  0
   17.2700   15.8600   42.2200 H   0  0  0  0  0  0  0  0  0  0  0  0
   17.4300   14.0500   41.8800 H   0  0  0  0  0  0  0  0  0  0  0  0
   16.6100   14.5700   43.7600 C   0  0  0  0  0  0  0  0  0  0  0  0
   16.0200   13.5200   44.0900 O   0  0  0  0  0  0  0  0  0  0  0  0
   16.9000   15.4400   44.6100 O   0  0  0  0  0  0  0  0  0  0  0  0
   14.7600   16.2900   41.6300 C   0  0  0  0  0  0  0  0  0  0  0  0
   14.8200   17.2000   40.8100 O   0  0  0  0  0  0  0  0  0  0  0  0
    9.5400   15.6400   46.9900 N   0  0  0  0  0  0  0  0  0  0  0  0
   10.3400   16.1700   46.6900 H   0  0  0  0  0  0  0  0  0  0  0  0
    9.5600   15.1500   48.3600 C   0  0  0  0  0  0  0  0  0  0  0  0
    8.9600   14.2400   48.3900 H   0  0  0  0  0  0  0  0  0  0  0  0
   10.9700   15.1000   48.9300 C   0  0  0  0  0  0  0  0  0  0  0  0
   11.0900   15.1900   50.0100 H   0  0  0  0  0  0  0  0  0  0  0  0
   11.5800   15.8600   48.4300 H   0  0  0  0  0  0  0  0  0  0  0  0
   11.6800   13.8400   48.4500 C   0  0  0  0  0  0  0  0  0  0  0  0
   11.6400   13.7300   47.3600 H   0  0  0  0  0  0  0  0  0  0  0  0
   11.1500   12.9400   48.7500 H   0  0  0  0  0  0  0  0  0  0  0  0
   13.1000   13.8100   49.0100 C   0  0  0  0  0  0  0  0  0  0  0  0
   13.5100   12.8100   48.8200 H   0  0  0  0  0  0  0  0  0  0  0  0
   13.0300   13.9700   50.0800 H   0  0  0  0  0  0  0  0  0  0  0  0
   13.9700   14.8400   48.4400 N   0  0  0  0  0  0  0  0  0  0  0  0
   14.0900   15.7100   48.9400 H   0  0  0  0  0  0  0  0  0  0  0  0
   14.7200   14.7500   47.3300 C   0  0  0  0  0  0  0  0  0  0  0  0
   14.8500   13.6200   46.6200 N   0  0  0  0  0  0  0  0  0  0  0  0
   14.2000   12.8600   46.7500 H   0  0  0  0  0  0  0  0  0  0  0  0
   15.3500   13.7400   45.7500 H   0  0  0  0  0  0  0  0  0  0  0  0
   15.5200   15.7800   47.0300 N   0  0  0  0  0  0  0  0  0  0  0  0
   15.5700   16.5100   47.7300 H   0  0  0  0  0  0  0  0  0  0  0  0
   16.1700   15.6000   46.2800 H   0  0  0  0  0  0  0  0  0  0  0  0
    8.6900   16.0300   49.2500 C   0  0  0  0  0  0  0  0  0  0  0  0
    8.4000   15.5400   50.3300 O   0  0  0  0  0  0  0  0  0  0  0  0
   15.2900   22.0000   51.2800 N   0  0  0  0  0  0  0  0  0  0  0  0
   15.1400   22.7000   50.5600 H   0  0  0  0  0  0  0  0  0  0  0  0
   16.6100   21.6200   51.7400 C   0  0  0  0  0  0  0  0  0  0  0  0
   16.6200   20.9000   52.5600 H   0  0  0  0  0  0  0  0  0  0  0  0
   17.1700   20.9900   50.4700 C   0  0  0  0  0  0  0  0  0  0  0  0
   16.9300   21.5700   49.5700 H   0  0  0  0  0  0  0  0  0  0  0  0
   16.7300   20.0100   50.2800 H   0  0  0  0  0  0  0  0  0  0  0  0
   18.6700   20.8600   50.5900 C   0  0  0  0  0  0  0  0  0  0  0  0
   19.5100   21.8400   50.0300 C   0  0  0  0  0  0  0  0  0  0  0  0
   19.1200   22.7200   49.5400 H   0  0  0  0  0  0  0  0  0  0  0  0
   20.8900   21.6800   49.9200 C   0  0  0  0  0  0  0  0  0  0  0  0
   21.5200   22.4000   49.4100 H   0  0  0  0  0  0  0  0  0  0  0  0
   21.4800   20.4700   50.3000 C   0  0  0  0  0  0  0  0  0  0  0  0
   22.5100   20.2100   50.1000 H   0  0  0  0  0  0  0  0  0  0  0  0
   20.6700   19.4700   50.8600 C   0  0  0  0  0  0  0  0  0  0  0  0
   21.1100   18.5800   51.2800 H   0  0  0  0  0  0  0  0  0  0  0  0
   19.2800   19.6600   50.9600 C   0  0  0  0  0  0  0  0  0  0  0  0
   18.6900   18.9100   51.4600 H   0  0  0  0  0  0  0  0  0  0  0  0
   17.3700   22.8400   52.2600 C   0  0  0  0  0  0  0  0  0  0  0  0
   16.9400   23.9800   52.1600 O   0  0  0  0  0  0  0  0  0  0  0  0
   29.1100   23.2100   51.7300 N   0  0  0  0  0  0  0  0  0  0  0  0
   28.7500   24.0400   52.1800 H   0  0  0  0  0  0  0  0  0  0  0  0
   28.4500   21.9500   51.9900 C   0  0  0  0  0  0  0  0  0  0  0  0
   29.1900   21.3700   52.5400 H   0  0  0  0  0  0  0  0  0  0  0  0
   27.2400   22.1100   52.9100 C   0  0  0  0  0  0  0  0  0  0  0  0
   26.7000   21.1700   53.0100 H   0  0  0  0  0  0  0  0  0  0  0  0
   26.5500   22.8500   52.5100 H   0  0  0  0  0  0  0  0  0  0  0  0
   27.5800   22.5200   54.3300 C   0  0  0  0  0  0  0  0  0  0  0  0
   26.6500   22.8100   54.8200 H   0  0  0  0  0  0  0  0  0  0  0  0
   28.2100   23.4200   54.3700 H   0  0  0  0  0  0  0  0  0  0  0  0
   28.2300   21.5000   55.2600 C   0  0  0  0  0  0  0  0  0  0  0  0
   27.9100   21.4700   56.4700 O   0  0  0  0  0  0  0  0  0  0  0  0
   29.1400   20.7500   54.8400 O   0  0  0  0  0  0  0  0  0  0  0  0
   28.0000   21.1400   50.7800 C   0  0  0  0  0  0  0  0  0  0  0  0
   28.1000   19.9100   50.7700 O   0  0  0  0  0  0  0  0  0  0  0  0
   27.6200   21.8300   49.7000 N   0  0  0  0  0  0  0  0  0  0  0  0
   27.8600   22.8100   49.7100 H   0  0  0  0  0  0  0  0  0  0  0  0
   26.8800   21.4500   48.5200 C   0  0  0  0  0  0  0  0  0  0  0  0
   26.7100   20.3700   48.5600 H   0  0  0  0  0  0  0  0  0  0  0  0
   25.5700   22.2300   48.5100 C   0  0  0  0  0  0  0  0  0  0  0  0
   24.9800   22.0300   47.6200 H   0  0  0  0  0  0  0  0  0  0  0  0
   24.6600   21.8300   49.6600 C   0  0  0  0  0  0  0  0  0  0  0  0
   25.0900   22.0400   50.6400 H   0  0  0  0  0  0  0  0  0  0  0  0
   23.7100   22.3600   49.6300 H   0  0  0  0  0  0  0  0  0  0  0  0
   24.6400   20.7400   49.6100 H   0  0  0  0  0  0  0  0  0  0  0  0
   25.6900   23.7500   48.5100 C   0  0  0  0  0  0  0  0  0  0  0  0
   26.2800   24.1300   49.3500 H   0  0  0  0  0  0  0  0  0  0  0  0
   26.2000   24.1300   47.6300 H   0  0  0  0  0  0  0  0  0  0  0  0
   24.6700   24.1100   48.3800 H   0  0  0  0  0  0  0  0  0  0  0  0
   27.6700   21.8200   47.2700 C   0  0  0  0  0  0  0  0  0  0  0  0
   28.7500   22.3900   47.4100 O   0  0  0  0  0  0  0  0  0  0  0  0
   27.1500   21.5800   46.0700 N   0  0  0  0  0  0  0  0  0  0  0  0
   26.4100   20.8900   46.0900 H   0  0  0  0  0  0  0  0  0  0  0  0
   27.8900   21.9200   44.8700 C   0  0  0  0  0  0  0  0  0  0  0  0
   28.8600   21.4500   44.9900 H   0  0  0  0  0  0  0  0  0  0  0  0
   27.1200   21.4100   43.6500 C   0  0  0  0  0  0  0  0  0  0  0  0
   27.7600   21.5300   42.7800 H   0  0  0  0  0  0  0  0  0  0  0  0
   27.1400   19.8900   43.8300 C   0  0  0  0  0  0  0  0  0  0  0  0
   28.1300   19.4700   43.9900 H   0  0  0  0  0  0  0  0  0  0  0  0
   26.4600   19.5900   44.6300 H   0  0  0  0  0  0  0  0  0  0  0  0
   26.9000   19.4200   42.8800 H   0  0  0  0  0  0  0  0  0  0  0  0
   25.7900   22.0600   43.3000 C   0  0  0  0  0  0  0  0  0  0  0  0
   25.9700   23.0200   42.8200 H   0  0  0  0  0  0  0  0  0  0  0  0
   25.3300   22.3200   44.2500 H   0  0  0  0  0  0  0  0  0  0  0  0
   24.8800   21.2000   42.4300 C   0  0  0  0  0  0  0  0  0  0  0  0
   25.3700   20.9000   41.4900 H   0  0  0  0  0  0  0  0  0  0  0  0
   24.6000   20.2500   42.8900 H   0  0  0  0  0  0  0  0  0  0  0  0
   24.0100   21.7800   42.1300 H   0  0  0  0  0  0  0  0  0  0  0  0
   28.1100   23.4200   44.7000 C   0  0  0  0  0  0  0  0  0  0  0  0
   27.2300   24.2400   44.9500 O   0  0  0  0  0  0  0  0  0  0  0  0
   28.3400   17.9500   39.8900 N   0  0  0  0  0  0  0  0  0  0  0  0
   27.6500   17.9500   39.1600 H   0  0  0  0  0  0  0  0  0  0  0  0
   28.6400   16.6600   40.4900 C   0  0  0  0  0  0  0  0  0  0  0  0
   28.8900   16.7300   41.5500 H   0  0  0  0  0  0  0  0  0  0  0  0
   27.4300   15.7600   40.2600 C   0  0  0  0  0  0  0  0  0  0  0  0
   27.6500   14.7300   40.5400 H   0  0  0  0  0  0  0  0  0  0  0  0
   27.2900   15.7100   39.1800 H   0  0  0  0  0  0  0  0  0  0  0  0
   26.1000   16.2300   40.7900 C   0  0  0  0  0  0  0  0  0  0  0  0
   25.9400   16.6000   42.1300 C   0  0  0  0  0  0  0  0  0  0  0  0
   26.7800   16.3400   42.7500 H   0  0  0  0  0  0  0  0  0  0  0  0
   24.7000   17.0200   42.6400 C   0  0  0  0  0  0  0  0  0  0  0  0
   24.5000   17.2500   43.6800 H   0  0  0  0  0  0  0  0  0  0  0  0
   23.6100   17.2100   41.7700 C   0  0  0  0  0  0  0  0  0  0  0  0
   22.4100   17.6200   42.2800 O   0  0  0  0  0  0  0  0  0  0  0  0
   22.5600   18.1100   43.0900 H   0  0  0  0  0  0  0  0  0  0  0  0
   23.7900   16.9000   40.4100 C   0  0  0  0  0  0  0  0  0  0  0  0
   22.9300   16.9500   39.7600 H   0  0  0  0  0  0  0  0  0  0  0  0
   25.0000   16.3900   39.9300 C   0  0  0  0  0  0  0  0  0  0  0  0
   25.0900   15.9400   38.9500 H   0  0  0  0  0  0  0  0  0  0  0  0
   29.9300   16.0500   39.9600 C   0  0  0  0  0  0  0  0  0  0  0  0
   30.6200   15.2500   40.5900 O   0  0  0  0  0  0  0  0  0  0  0  0
   25.7400   10.6600   38.7900 N   0  0  0  0  0  0  0  0  0  0  0  0
   25.2300   10.4800   37.9300 H   0  0  0  0  0  0  0  0  0  0  0  0
   25.4100    9.7900   39.9000 C   0  0  0  0  0  0  0  0  0  0  0  0
   26.3200    9.6400   40.4800 H   0  0  0  0  0  0  0  0  0  0  0  0
   24.5500   10.4900   40.9500 C   0  0  0  0  0  0  0  0  0  0  0  0
   23.6300   10.8200   40.4700 H   0  0  0  0  0  0  0  0  0  0  0  0
   25.0700   11.3900   41.2600 H   0  0  0  0  0  0  0  0  0  0  0  0
   24.1800    9.6900   42.1800 C   0  0  0  0  0  0  0  0  0  0  0  0
   24.8800    9.7000   43.3800 N   0  0  0  0  0  0  0  0  0  0  0  0
   24.3100    8.7700   44.1600 C   0  0  0  0  0  0  0  0  0  0  0  0
   24.5200    8.6700   45.2100 H   0  0  0  0  0  0  0  0  0  0  0  0
   23.2400    8.2600   43.5300 N   0  0  0  0  0  0  0  0  0  0  0  0
   22.6200    7.6100   43.9900 H   0  0  0  0  0  0  0  0  0  0  0  0
   23.1000    8.8500   42.2800 C   0  0  0  0  0  0  0  0  0  0  0  0
   22.2200    8.8100   41.6600 H   0  0  0  0  0  0  0  0  0  0  0  0
   24.8500    8.4600   39.4100 C   0  0  0  0  0  0  0  0  0  0  0  0
   24.0100    8.6500   38.5200 O   0  0  0  0  0  0  0  0  0  0  0  0
   21.2500    7.6600   37.2300 N   0  0  0  0  0  0  0  0  0  0  0  0
   22.0600    7.7300   37.8400 H   0  0  0  0  0  0  0  0  0  0  0  0
   20.4000    8.8300   37.2700 C   0  0  0  0  0  0  0  0  0  0  0  0
   19.7400    8.6700   36.4100 H   0  0  0  0  0  0  0  0  0  0  0  0
   19.6000    8.8300   38.5700 C   0  0  0  0  0  0  0  0  0  0  0  0
   19.1300    7.8600   38.6800 H   0  0  0  0  0  0  0  0  0  0  0  0
   20.4500    9.1600   39.7900 C   0  0  0  0  0  0  0  0  0  0  0  0
   19.9000    9.2000   40.7300 H   0  0  0  0  0  0  0  0  0  0  0  0
   21.2000    8.3800   39.8700 H   0  0  0  0  0  0  0  0  0  0  0  0
   20.9100   10.1400   39.6400 H   0  0  0  0  0  0  0  0  0  0  0  0
   18.3900    9.7600   38.5600 C   0  0  0  0  0  0  0  0  0  0  0  0
   18.6800   10.8000   38.4200 H   0  0  0  0  0  0  0  0  0  0  0  0
   18.0000    9.7200   39.5800 H   0  0  0  0  0  0  0  0  0  0  0  0
   17.1800    9.5100   37.6600 C   0  0  0  0  0  0  0  0  0  0  0  0
   16.6200    8.6200   37.9300 H   0  0  0  0  0  0  0  0  0  0  0  0
   16.4600   10.3200   37.7500 H   0  0  0  0  0  0  0  0  0  0  0  0
   17.4700    9.2900   36.6300 H   0  0  0  0  0  0  0  0  0  0  0  0
   20.9200   10.1800   36.7900 C   0  0  0  0  0  0  0  0  0  0  0  0
   20.1500   11.0000   36.3000 O   0  0  0  0  0  0  0  0  0  0  0  0
   22.2500   10.3000   36.7800 N   0  0  0  0  0  0  0  0  0  0  0  0
   22.8600    9.5200   36.9900 H   0  0  0  0  0  0  0  0  0  0  0  0
   22.9200   11.4600   36.2400 C   0  0  0  0  0  0  0  0  0  0  0  0
   22.2800   11.8600   35.4500 H   0  0  0  0  0  0  0  0  0  0  0  0
   23.2300   12.5600   37.2600 C   0  0  0  0  0  0  0  0  0  0  0  0
   24.1900   12.2700   37.6900 H   0  0  0  0  0  0  0  0  0  0  0  0
   23.5600   13.8200   36.4700 C   0  0  0  0  0  0  0  0  0  0  0  0
   22.8300   14.0300   35.6900 H   0  0  0  0  0  0  0  0  0  0  0  0
   23.6800   14.6400   37.1800 H   0  0  0  0  0  0  0  0  0  0  0  0
   24.5200   13.7900   35.9500 H   0  0  0  0  0  0  0  0  0  0  0  0
   22.1100   12.7400   38.2800 C   0  0  0  0  0  0  0  0  0  0  0  0
   21.7300   11.7900   38.6800 H   0  0  0  0  0  0  0  0  0  0  0  0
   21.3000   13.1000   37.6400 H   0  0  0  0  0  0  0  0  0  0  0  0
   22.4400   13.7200   39.4000 C   0  0  0  0  0  0  0  0  0  0  0  0
   22.1600   14.7400   39.1600 H   0  0  0  0  0  0  0  0  0  0  0  0
   21.8800   13.4000   40.2900 H   0  0  0  0  0  0  0  0  0  0  0  0
   23.5100   13.6200   39.5300 H   0  0  0  0  0  0  0  0  0  0  0  0
   24.1000   11.0600   35.3600 C   0  0  0  0  0  0  0  0  0  0  0  0
   24.9300   10.3900   35.9600 O   0  0  0  0  0  0  0  0  0  0  0  0
   13.9970   24.3560   45.7420 H   0  0  0  0  0  0  0  0  0  0  0  0
   14.4340   22.0360   42.3090 H   0  0  0  0  0  0  0  0  0  0  0  0
   15.1730   14.9510   36.6110 H   0  0  0  0  0  0  0  0  0  0  0  0
   14.1330   16.3730   42.5300 H   0  0  0  0  0  0  0  0  0  0  0  0
    8.8950   15.4430   46.2380 H   0  0  0  0  0  0  0  0  0  0  0  0
    8.3360   17.0260   48.9450 H   0  0  0  0  0  0  0  0  0  0  0  0
   14.4540   21.7870   51.8050 H   0  0  0  0  0  0  0  0  0  0  0  0
   18.2160   22.5690   52.9090 H   0  0  0  0  0  0  0  0  0  0  0  0
   30.0290   23.2940   51.3200 H   0  0  0  0  0  0  0  0  0  0  0  0
   29.0690   23.7090   44.2450 H   0  0  0  0  0  0  0  0  0  0  0  0
   28.7180   18.8500   40.1470 H   0  0  0  0  0  0  0  0  0  0  0  0
   30.2500   16.3950   38.9660 H   0  0  0  0  0  0  0  0  0  0  0  0
   26.6120   11.1680   38.7520 H   0  0  0  0  0  0  0  0  0  0  0  0
   24.9910    7.4650   39.8580 H   0  0  0  0  0  0  0  0  0  0  0  0
   20.9620    6.7660   36.8590 H   0  0  0  0  0  0  0  0  0  0  0  0
   24.2320   11.3250   34.3010 H   0  0  0  0  0  0  0  0  0  0  0  0
  1  2  1  0  0  0  0
  1  3  1  0  0  0  0
  3  4  1  0  0  0  0
  3  5  1  0  0  0  0
  5  6  1  0  0  0  0
  5  7  1  0  0  0  0
  5  8  1  0  0  0  0
  8  9  4  0  0  0  0
  9 10  1  0  0  0  0
  9 11  4  0  0  0  0
 11 12  1  0  0  0  0
 11 13  4  0  0  0  0
 13 14  1  0  0  0  0
 14 15  1  0  0  0  0
 13 16  4  0  0  0  0
 16 17  1  0  0  0  0
  8 18  4  0  0  0  0
 16 18  4  0  0  0  0
 18 19  1  0  0  0  0
  3 20  1  0  0  0  0
 20 21  2  0  0  0  0
 22 23  1  0  0  0  0
 22 24  1  0  0  0  0
 24 25  1  0  0  0  0
 24 26  1  0  0  0  0
 26 27  1  0  0  0  0
 26 28  1  0  0  0  0
 26 29  1  0  0  0  0
 29 30  4  0  0  0  0
 30 31  1  0  0  0  0
 30 32  4  0  0  0  0
 32 33  1  0  0  0  0
 32 34  4  0  0  0  0
 34 35  1  0  0  0  0
 34 36  4  0  0  0  0
 36 37  1  0  0  0  0
 29 38  4  0  0  0  0
 36 38  4  0  0  0  0
 38 39  1  0  0  0  0
 24 40  1  0  0  0  0
 40 41  2  0  0  0  0
 40 42  4  0  0  0  0
 42 43  1  0  0  0  0
 42 44  1  0  0  0  0
 44 45  1  0  0  0  0
 44 46  1  0  0  0  0
 46 47  1  0  0  0  0
 46 48  1  0  0  0  0
 46 49  1  0  0  0  0
 49 50  4  0  0  0  0
 49 51  4  0  0  0  0
 44 52  1  0  0  0  0
 52 53  2  0  0  0  0
 54 55  1  0  0  0  0
 54 56  1  0  0  0  0
 56 57  1  0  0  0  0
 56 58  1  0  0  0  0
 58 59  1  0  0  0  0
 58 60  1  0  0  0  0
 58 61  1  0  0  0  0
 61 62  1  0  0  0  0
 61 63  1  0  0  0  0
 61 64  1  0  0  0  0
 64 65  1  0  0  0  0
 64 66  1  0  0  0  0
 64 67  1  0  0  0  0
 67 68  1  0  0  0  0
 67 69  4  0  0  0  0
 69 70  4  0  0  0  0
 70 71  1  0  0  0  0
 70 72  1  0  0  0  0
 69 73  4  0  0  0  0
 73 74  1  0  0  0  0
 73 75  1  0  0  0  0
 56 76  1  0  0  0  0
 76 77  2  0  0  0  0
 78 79  1  0  0  0  0
 78 80  1  0  0  0  0
 80 81  1  0  0  0  0
 80 82  1  0  0  0  0
 82 83  1  0  0  0  0
 82 84  1  0  0  0  0
 82 85  1  0  0  0  0
 85 86  4  0  0  0  0
 86 87  1  0  0  0  0
 86 88  4  0  0  0  0
 88 89  1  0  0  0  0
 88 90  4  0  0  0  0
 90 91  1  0  0  0  0
 90 92  4  0  0  0  0
 92 93  1  0  0  0  0
 85 94  4  0  0  0  0
 92 94  4  0  0  0  0
 94 95  1  0  0  0  0
 80 96  1  0  0  0  0
 96 97  2  0  0  0  0
 98 99  1  0  0  0  0
 98100  1  0  0  0  0
100101  1  0  0  0  0
100102  1  0  0  0  0
102103  1  0  0  0  0
102104  1  0  0  0  0
102105  1  0  0  0  0
105106  1  0  0  0  0
105107  1  0  0  0  0
105108  1  0  0  0  0
108109  4  0  0  0  0
108110  4  0  0  0  0
100111  1  0  0  0  0
111112  2  0  0  0  0
111113  4  0  0  0  0
113114  1  0  0  0  0
113115  1  0  0  0  0
115116  1  0  0  0  0
115117  1  0  0  0  0
117118  1  0  0  0  0
117119  1  0  0  0  0
119120  1  0  0  0  0
119121  1  0  0  0  0
119122  1  0  0  0  0
117123  1  0  0  0  0
123124  1  0  0  0  0
123125  1  0  0  0  0
123126  1  0  0  0  0
115127  1  0  0  0  0
127128  2  0  0  0  0
127129  4  0  0  0  0
129130  1  0  0  0  0
129131  1  0  0  0  0
131132  1  0  0  0  0
131133  1  0  0  0  0
133134  1  0  0  0  0
133135  1  0  0  0  0
135136  1  0  0  0  0
135137  1  0  0  0  0
135138  1  0  0  0  0
133139  1  0  0  0  0
139140  1  0  0  0  0
139141  1  0  0  0  0
139142  1  0  0  0  0
142143  1  0  0  0  0
142144  1  0  0  0  0
142145  1  0  0  0  0
131146  1  0  0  0  0
146147  2  0  0  0  0
148149  1  0  0  0  0
148150  1  0  0  0  0
150151  1  0  0  0  0
150152  1  0  0  0  0
152153  1  0  0  0  0
152154  1  0  0  0  0
152155  1  0  0  0  0
155156  4  0  0  0  0
156157  1  0  0  0  0
156158  4  0  0  0  0
158159  1  0  0  0  0
158160  4  0  0  0  0
160161  1  0  0  0  0
161162  1  0  0  0  0
160163  4  0  0  0  0
163164  1  0  0  0  0
155165  4  0  0  0  0
163165  4  0  0  0  0
165166  1  0  0  0  0
150167  1  0  0  0  0
167168  2  0  0  0  0
169170  1  0  0  0  0
169171  1  0  0  0  0
171172  1  0  0  0  0
171173  1  0  0  0  0
173174  1  0  0  0  0
173175  1  0  0  0  0
173176  1  0  0  0  0
176177  4  0  0  0  0
177178  2  0  0  0  0
178179  1  0  0  0  0
178180  4  0  0  0  0
180181  1  0  0  0  0
176182  2  0  0  0  0
180182  1  0  0  0  0
182183  1  0  0  0  0
171184  1  0  0  0  0
184185  2  0  0  0  0
186187  1  0  0  0  0
186188  1  0  0  0  0
188189  1  0  0  0  0
188190  1  0  0  0  0
190191  1  0  0  0  0
190192  1  0  0  0  0
192193  1  0  0  0  0
192194  1  0  0  0  0
192195  1  0  0  0  0
190196  1  0  0  0  0
196197  1  0  0  0  0
196198  1  0  0  0  0
196199  1  0  0  0  0
199200  1  0  0  0  0
199201  1  0  0  0  0
199202  1  0  0  0  0
188203  1  0  0  0  0
203204  2  0  0  0  0
203205  4  0  0  0  0
205206  1  0  0  0  0
205207  1  0  0  0  0
207208  1  0  0  0  0
207209  1  0  0  0  0
209210  1  0  0  0  0
209211  1  0  0  0  0
211212  1  0  0  0  0
211213  1  0  0  0  0
211214  1  0  0  0  0
209215  1  0  0  0  0
215216  1  0  0  0  0
215217  1  0  0  0  0
215218  1  0  0  0  0
218219  1  0  0  0  0
218220  1  0  0  0  0
218221  1  0  0  0  0
207222  1  0  0  0  0
222223  2  0  0  0  0
  1224  1  0  0  0  0
 20225  1  0  0  0  0
 22226  1  0  0  0  0
 52227  1  0  0  0  0
 54228  1  0  0  0  0
 76229  1  0  0  0  0
 78230  1  0  0  0  0
 96231  1  0  0  0  0
 98232  1  0  0  0  0
146233  1  0  0  0  0
148234  1  0  0  0  0
167235  1  0  0  0  0
169236  1  0  0  0  0
184237  1  0  0  0  0
186238  1  0  0  0  0
222239  1  0  0  0  0
M  CHG  1   1  -1
M  END
