 xtb: 6.7.1 (edcfbbe)
          01052609063D

190188  0     0  0            999 V2000
   18.9400   10.5000   46.4400 N   0  0  0  0  0  0  0  0  0  0  0  0
   18.9600   11.4900   46.2500 H   0  0  0  0  0  0  0  0  0  0  0  0
   19.7400   10.0700   47.5700 C   0  0  0  0  0  0  0  0  0  0  0  0
   19.5300    9.0200   47.7500 H   0  0  0  0  0  0  0  0  0  0  0  0
   21.1800   10.0800   47.0600 C   0  0  0  0  0  0  0  0  0  0  0  0
   21.2700    9.3700   46.2400 H   0  0  0  0  0  0  0  0  0  0  0  0
   21.7400    9.7000   47.9200 H   0  0  0  0  0  0  0  0  0  0  0  0
   21.6600   11.4400   46.6100 C   0  0  0  0  0  0  0  0  0  0  0  0
   21.8900   11.7400   45.2600 C   0  0  0  0  0  0  0  0  0  0  0  0
   21.7400   11.0100   44.4800 H   0  0  0  0  0  0  0  0  0  0  0  0
   22.4800   12.9600   44.9200 C   0  0  0  0  0  0  0  0  0  0  0  0
   22.6600   13.1900   43.8800 H   0  0  0  0  0  0  0  0  0  0  0  0
   22.8200   13.9100   45.8900 C   0  0  0  0  0  0  0  0  0  0  0  0
   23.3100   14.7900   45.5300 H   0  0  0  0  0  0  0  0  0  0  0  0
   22.6200   13.5900   47.2400 C   0  0  0  0  0  0  0  0  0  0  0  0
   22.9100   14.3300   47.9700 H   0  0  0  0  0  0  0  0  0  0  0  0
   22.1100   12.3300   47.5900 C   0  0  0  0  0  0  0  0  0  0  0  0
   22.1000   12.0600   48.6300 H   0  0  0  0  0  0  0  0  0  0  0  0
   19.5800   10.8300   48.8800 C   0  0  0  0  0  0  0  0  0  0  0  0
   19.9800   10.2500   49.8900 O   0  0  0  0  0  0  0  0  0  0  0  0
   19.1400   12.0800   48.8000 N   0  0  0  0  0  0  0  0  0  0  0  0
   19.0100   12.5000   47.8900 H   0  0  0  0  0  0  0  0  0  0  0  0
   18.5900   12.8400   49.9100 C   0  0  0  0  0  0  0  0  0  0  0  0
   18.0000   12.2200   50.5800 H   0  0  0  0  0  0  0  0  0  0  0  0
   19.7400   13.5000   50.6500 C   0  0  0  0  0  0  0  0  0  0  0  0
   20.0400   14.3800   50.0900 H   0  0  0  0  0  0  0  0  0  0  0  0
   20.6800   12.9500   50.6100 H   0  0  0  0  0  0  0  0  0  0  0  0
   19.3500   13.8900   52.0700 C   0  0  0  0  0  0  0  0  0  0  0  0
   18.8500   13.0500   52.8500 O   0  0  0  0  0  0  0  0  0  0  0  0
   19.4900   15.1100   52.3300 O   0  0  0  0  0  0  0  0  0  0  0  0
   17.7100   13.9800   49.4100 C   0  0  0  0  0  0  0  0  0  0  0  0
   17.7900   14.4000   48.2600 O   0  0  0  0  0  0  0  0  0  0  0  0
   16.4300   23.8900   54.6300 N   0  0  0  0  0  0  0  0  0  0  0  0
   16.2600   24.1800   53.6700 H   0  0  0  0  0  0  0  0  0  0  0  0
   17.8000   23.7200   55.0800 C   0  0  0  0  0  0  0  0  0  0  0  0
   17.7800   23.5100   56.1500 H   0  0  0  0  0  0  0  0  0  0  0  0
   18.4200   22.4900   54.4300 C   0  0  0  0  0  0  0  0  0  0  0  0
   18.2100   22.6100   53.3700 H   0  0  0  0  0  0  0  0  0  0  0  0
   17.9600   21.5200   54.6100 H   0  0  0  0  0  0  0  0  0  0  0  0
   19.9100   22.4000   54.6600 C   0  0  0  0  0  0  0  0  0  0  0  0
   20.7200   23.0600   53.7400 C   0  0  0  0  0  0  0  0  0  0  0  0
   20.2800   23.5400   52.8800 H   0  0  0  0  0  0  0  0  0  0  0  0
   22.1100   22.8900   53.7800 C   0  0  0  0  0  0  0  0  0  0  0  0
   22.8300   23.3300   53.1100 H   0  0  0  0  0  0  0  0  0  0  0  0
   22.6900   22.1500   54.8200 C   0  0  0  0  0  0  0  0  0  0  0  0
   23.7600   22.0600   54.9000 H   0  0  0  0  0  0  0  0  0  0  0  0
   21.8900   21.4700   55.7500 C   0  0  0  0  0  0  0  0  0  0  0  0
   22.2200   20.8400   56.5600 H   0  0  0  0  0  0  0  0  0  0  0  0
   20.5000   21.6500   55.6900 C   0  0  0  0  0  0  0  0  0  0  0  0
   19.9000   21.1600   56.4400 H   0  0  0  0  0  0  0  0  0  0  0  0
   18.6200   24.9700   54.8100 C   0  0  0  0  0  0  0  0  0  0  0  0
   18.4200   25.7800   53.9100 O   0  0  0  0  0  0  0  0  0  0  0  0
   30.6400   25.2400   53.2300 N   0  0  0  0  0  0  0  0  0  0  0  0
   30.2500   26.0500   52.7800 H   0  0  0  0  0  0  0  0  0  0  0  0
   29.8300   24.4200   54.1200 C   0  0  0  0  0  0  0  0  0  0  0  0
   30.5400   23.9300   54.7900 H   0  0  0  0  0  0  0  0  0  0  0  0
   28.9200   25.2400   55.0300 C   0  0  0  0  0  0  0  0  0  0  0  0
   28.0500   24.5900   55.1500 H   0  0  0  0  0  0  0  0  0  0  0  0
   28.4500   26.0400   54.4600 H   0  0  0  0  0  0  0  0  0  0  0  0
   29.5400   25.7500   56.3300 C   0  0  0  0  0  0  0  0  0  0  0  0
   30.3500   26.4500   56.1400 H   0  0  0  0  0  0  0  0  0  0  0  0
   30.0500   24.9500   56.8800 H   0  0  0  0  0  0  0  0  0  0  0  0
   28.5200   26.4300   57.2200 C   0  0  0  0  0  0  0  0  0  0  0  0
   28.8100   26.5900   58.4300 O   0  0  0  0  0  0  0  0  0  0  0  0
   27.4000   26.7800   56.7900 O   0  0  0  0  0  0  0  0  0  0  0  0
   29.0400   23.3000   53.4700 C   0  0  0  0  0  0  0  0  0  0  0  0
   28.7900   22.2300   54.0100 O   0  0  0  0  0  0  0  0  0  0  0  0
   28.7500   23.5500   52.1900 N   0  0  0  0  0  0  0  0  0  0  0  0
   29.2000   24.3300   51.7200 H   0  0  0  0  0  0  0  0  0  0  0  0
   28.2900   22.5100   51.2900 C   0  0  0  0  0  0  0  0  0  0  0  0
   28.3500   21.5300   51.7700 H   0  0  0  0  0  0  0  0  0  0  0  0
   26.8400   22.8100   50.9300 C   0  0  0  0  0  0  0  0  0  0  0  0
   26.5900   22.1000   50.1400 H   0  0  0  0  0  0  0  0  0  0  0  0
   26.0800   22.5200   52.2300 C   0  0  0  0  0  0  0  0  0  0  0  0
   26.2000   23.3600   52.9200 H   0  0  0  0  0  0  0  0  0  0  0  0
   25.0600   22.3000   51.9300 H   0  0  0  0  0  0  0  0  0  0  0  0
   26.4700   21.6900   52.8100 H   0  0  0  0  0  0  0  0  0  0  0  0
   26.5900   24.2000   50.3600 C   0  0  0  0  0  0  0  0  0  0  0  0
   26.7500   24.8900   51.1900 H   0  0  0  0  0  0  0  0  0  0  0  0
   27.3300   24.3200   49.5600 H   0  0  0  0  0  0  0  0  0  0  0  0
   25.5800   24.1500   49.9600 H   0  0  0  0  0  0  0  0  0  0  0  0
   29.2800   22.4500   50.1400 C   0  0  0  0  0  0  0  0  0  0  0  0
   30.1400   23.3200   50.0600 O   0  0  0  0  0  0  0  0  0  0  0  0
   29.0400   21.4800   49.2500 N   0  0  0  0  0  0  0  0  0  0  0  0
   28.2100   20.9000   49.2300 H   0  0  0  0  0  0  0  0  0  0  0  0
   30.0200   21.1800   48.2300 C   0  0  0  0  0  0  0  0  0  0  0  0
   30.9800   20.8900   48.6600 H   0  0  0  0  0  0  0  0  0  0  0  0
   29.6100   19.9100   47.4900 C   0  0  0  0  0  0  0  0  0  0  0  0
   30.3300   19.6400   46.7100 H   0  0  0  0  0  0  0  0  0  0  0  0
   29.5900   18.7600   48.4800 C   0  0  0  0  0  0  0  0  0  0  0  0
   29.6400   17.8200   47.9300 H   0  0  0  0  0  0  0  0  0  0  0  0
   30.5200   18.8600   49.0500 H   0  0  0  0  0  0  0  0  0  0  0  0
   28.7100   18.8300   49.1100 H   0  0  0  0  0  0  0  0  0  0  0  0
   28.2100   19.9600   46.8900 C   0  0  0  0  0  0  0  0  0  0  0  0
   28.2600   20.8400   46.2400 H   0  0  0  0  0  0  0  0  0  0  0  0
   27.4500   20.2000   47.6400 H   0  0  0  0  0  0  0  0  0  0  0  0
   27.7200   18.7700   46.0700 C   0  0  0  0  0  0  0  0  0  0  0  0
   26.7700   19.0400   45.6100 H   0  0  0  0  0  0  0  0  0  0  0  0
   28.4400   18.3600   45.3600 H   0  0  0  0  0  0  0  0  0  0  0  0
   27.5000   17.9700   46.7800 H   0  0  0  0  0  0  0  0  0  0  0  0
   30.2600   22.3500   47.2800 C   0  0  0  0  0  0  0  0  0  0  0  0
   29.4100   23.2200   47.1500 O   0  0  0  0  0  0  0  0  0  0  0  0
   31.4700   14.8200   45.2900 N   0  0  0  0  0  0  0  0  0  0  0  0
   30.5800   14.6100   44.8600 H   0  0  0  0  0  0  0  0  0  0  0  0
   32.1500   13.8800   46.1600 C   0  0  0  0  0  0  0  0  0  0  0  0
   32.8400   14.3400   46.8700 H   0  0  0  0  0  0  0  0  0  0  0  0
   31.1900   13.0100   46.9700 C   0  0  0  0  0  0  0  0  0  0  0  0
   31.7800   12.6000   47.7800 H   0  0  0  0  0  0  0  0  0  0  0  0
   30.9500   12.1700   46.3200 H   0  0  0  0  0  0  0  0  0  0  0  0
   29.9600   13.7200   47.4900 C   0  0  0  0  0  0  0  0  0  0  0  0
   29.9900   14.6000   48.5800 C   0  0  0  0  0  0  0  0  0  0  0  0
   30.9700   14.8100   48.9700 H   0  0  0  0  0  0  0  0  0  0  0  0
   28.8200   15.2800   48.9400 C   0  0  0  0  0  0  0  0  0  0  0  0
   28.8500   15.9900   49.7600 H   0  0  0  0  0  0  0  0  0  0  0  0
   27.6000   15.0600   48.2600 C   0  0  0  0  0  0  0  0  0  0  0  0
   26.4600   15.6100   48.7700 O   0  0  0  0  0  0  0  0  0  0  0  0
   26.6500   16.3700   49.3200 H   0  0  0  0  0  0  0  0  0  0  0  0
   27.6200   14.2000   47.1400 C   0  0  0  0  0  0  0  0  0  0  0  0
   26.7100   14.0000   46.5900 H   0  0  0  0  0  0  0  0  0  0  0  0
   28.8000   13.5700   46.7300 C   0  0  0  0  0  0  0  0  0  0  0  0
   28.7600   12.7900   45.9900 H   0  0  0  0  0  0  0  0  0  0  0  0
   33.0300   13.0000   45.2900 C   0  0  0  0  0  0  0  0  0  0  0  0
   33.9200   12.3300   45.8100 O   0  0  0  0  0  0  0  0  0  0  0  0
   29.1100    7.6300   48.0700 N   0  0  0  0  0  0  0  0  0  0  0  0
   28.7000    7.2700   47.2100 H   0  0  0  0  0  0  0  0  0  0  0  0
   28.6500    6.8900   49.2300 C   0  0  0  0  0  0  0  0  0  0  0  0
   29.5000    6.8100   49.9100 H   0  0  0  0  0  0  0  0  0  0  0  0
   27.6700    7.7600   50.0100 C   0  0  0  0  0  0  0  0  0  0  0  0
   26.7100    7.7400   49.4900 H   0  0  0  0  0  0  0  0  0  0  0  0
   27.9300    8.8200   50.0100 H   0  0  0  0  0  0  0  0  0  0  0  0
   27.5000    7.3200   51.4400 C   0  0  0  0  0  0  0  0  0  0  0  0
   28.4400    7.2700   52.4700 N   0  0  0  0  0  0  0  0  0  0  0  0
   27.8700    6.6500   53.5000 C   0  0  0  0  0  0  0  0  0  0  0  0
   28.3200    6.4400   54.4600 H   0  0  0  0  0  0  0  0  0  0  0  0
   26.5900    6.3700   53.2000 N   0  0  0  0  0  0  0  0  0  0  0  0
   25.9100    5.9300   53.8100 H   0  0  0  0  0  0  0  0  0  0  0  0
   26.3700    6.6900   51.8800 C   0  0  0  0  0  0  0  0  0  0  0  0
   25.4700    6.5200   51.3100 H   0  0  0  0  0  0  0  0  0  0  0  0
   28.0600    5.5100   48.9800 C   0  0  0  0  0  0  0  0  0  0  0  0
   27.0500    5.4400   48.2800 O   0  0  0  0  0  0  0  0  0  0  0  0
   24.3600    3.3500   47.0300 N   0  0  0  0  0  0  0  0  0  0  0  0
   25.2500    3.4000   46.5600 H   0  0  0  0  0  0  0  0  0  0  0  0
   23.4300    4.4400   46.7900 C   0  0  0  0  0  0  0  0  0  0  0  0
   22.6500    4.0600   46.1300 H   0  0  0  0  0  0  0  0  0  0  0  0
   22.8200    5.0300   48.0600 C   0  0  0  0  0  0  0  0  0  0  0  0
   22.3200    4.2200   48.5800 H   0  0  0  0  0  0  0  0  0  0  0  0
   23.8300    5.5300   49.0800 C   0  0  0  0  0  0  0  0  0  0  0  0
   24.2100    6.4800   48.6900 H   0  0  0  0  0  0  0  0  0  0  0  0
   23.4100    5.7200   50.0700 H   0  0  0  0  0  0  0  0  0  0  0  0
   24.5200    4.7100   49.2500 H   0  0  0  0  0  0  0  0  0  0  0  0
   21.7900    6.1500   47.8500 C   0  0  0  0  0  0  0  0  0  0  0  0
   22.1400    6.8500   47.1000 H   0  0  0  0  0  0  0  0  0  0  0  0
   21.6400    6.7400   48.7600 H   0  0  0  0  0  0  0  0  0  0  0  0
   20.3600    5.7700   47.4800 C   0  0  0  0  0  0  0  0  0  0  0  0
   19.7200    6.6300   47.2700 H   0  0  0  0  0  0  0  0  0  0  0  0
   20.3500    5.1600   46.5800 H   0  0  0  0  0  0  0  0  0  0  0  0
   19.9500    5.1600   48.2900 H   0  0  0  0  0  0  0  0  0  0  0  0
   24.0700    5.4600   45.8600 C   0  0  0  0  0  0  0  0  0  0  0  0
   23.3400    6.0400   45.0700 O   0  0  0  0  0  0  0  0  0  0  0  0
   25.3500    5.8200   45.9900 N   0  0  0  0  0  0  0  0  0  0  0  0
   25.9200    5.4200   46.7300 H   0  0  0  0  0  0  0  0  0  0  0  0
   26.0200    6.7800   45.1300 C   0  0  0  0  0  0  0  0  0  0  0  0
   25.4000    6.8800   44.2400 H   0  0  0  0  0  0  0  0  0  0  0  0
   26.0800    8.1800   45.7300 C   0  0  0  0  0  0  0  0  0  0  0  0
   26.5800    8.0800   46.6900 H   0  0  0  0  0  0  0  0  0  0  0  0
   26.9500    9.0100   44.8000 C   0  0  0  0  0  0  0  0  0  0  0  0
   27.0700    9.9400   45.3600 H   0  0  0  0  0  0  0  0  0  0  0  0
   27.9200    8.5200   44.7100 H   0  0  0  0  0  0  0  0  0  0  0  0
   26.4700    9.1700   43.8400 H   0  0  0  0  0  0  0  0  0  0  0  0
   24.7500    8.8800   46.0000 C   0  0  0  0  0  0  0  0  0  0  0  0
   24.0500    8.2000   46.4800 H   0  0  0  0  0  0  0  0  0  0  0  0
   24.4100    9.2600   45.0400 H   0  0  0  0  0  0  0  0  0  0  0  0
   24.9100   10.0100   47.0000 C   0  0  0  0  0  0  0  0  0  0  0  0
   25.2900    9.6100   47.9400 H   0  0  0  0  0  0  0  0  0  0  0  0
   25.5700   10.8200   46.6900 H   0  0  0  0  0  0  0  0  0  0  0  0
   23.9000   10.3100   47.2800 H   0  0  0  0  0  0  0  0  0  0  0  0
   27.3400    6.1200   44.7400 C   0  0  0  0  0  0  0  0  0  0  0  0
   28.1500    6.0100   45.6500 O   0  0  0  0  0  0  0  0  0  0  0  0
   18.4470    9.9240   45.7730 H   0  0  0  0  0  0  0  0  0  0  0  0
   17.0360   14.4490   50.1420 H   0  0  0  0  0  0  0  0  0  0  0  0
   15.6540   23.7990   55.2690 H   0  0  0  0  0  0  0  0  0  0  0  0
   19.4740   25.0610   55.4980 H   0  0  0  0  0  0  0  0  0  0  0  0
   31.5380   24.9530   52.8680 H   0  0  0  0  0  0  0  0  0  0  0  0
   31.1580   22.2430   46.6540 H   0  0  0  0  0  0  0  0  0  0  0  0
   31.8770   15.7250   45.1010 H   0  0  0  0  0  0  0  0  0  0  0  0
   32.9480   13.0160   44.1930 H   0  0  0  0  0  0  0  0  0  0  0  0
   29.7810    8.3850   48.0700 H   0  0  0  0  0  0  0  0  0  0  0  0
   28.6440    4.6470   49.3330 H   0  0  0  0  0  0  0  0  0  0  0  0
   24.1420    2.4850   47.5040 H   0  0  0  0  0  0  0  0  0  0  0  0
   27.5200    5.7840   43.7080 H   0  0  0  0  0  0  0  0  0  0  0  0
  1  2  1  0  0  0  0
  1  3  1  0  0  0  0
  3  4  1  0  0  0  0
  3  5  1  0  0  0  0
  5  6  1  0  0  0  0
  5  7  1  0  0  0  0
  5  8  1  0  0  0  0
  8  9  4  0  0  0  0
  9 10  1  0  0  0  0
  9 11  4  0  0  0  0
 11 12  1  0  0  0  0
 11 13  4  0  0  0  0
 13 14  1  0  0  0  0
 13 15  4  0  0  0  0
 15 16  1  0  0  0  0
  8 17  4  0  0  0  0
 15 17  4  0  0  0  0
 17 18  1  0  0  0  0
  3 19  1  0  0  0  0
 19 20  2  0  0  0  0
 19 21  4  0  0  0  0
 21 22  1  0  0  0  0
 21 23  1  0  0  0  0
 23 24  1  0  0  0  0
 23 25  1  0  0  0  0
 25 26  1  0  0  0  0
 25 27  1  0  0  0  0
 25 28  1  0  0  0  0
 28 29  2  0  0  0  0
 28 30  4  0  0  0  0
 23 31  1  0  0  0  0
 31 32  2  0  0  0  0
 33 34  1  0  0  0  0
 33 35  1  0  0  0  0
 35 36  1  0  0  0  0
 35 37  1  0  0  0  0
 37 38  1  0  0  0  0
 37 39  1  0  0  0  0
 37 40  1  0  0  0  0
 40 41  4  0  0  0  0
 41 42  1  0  0  0  0
 41 43  4  0  0  0  0
 43 44  1  0  0  0  0
 43 45  4  0  0  0  0
 45 46  1  0  0  0  0
 45 47  4  0  0  0  0
 47 48  1  0  0  0  0
 40 49  4  0  0  0  0
 47 49  4  0  0  0  0
 49 50  1  0  0  0  0
 35 51  1  0  0  0  0
 51 52  2  0  0  0  0
 53 54  1  0  0  0  0
 53 55  1  0  0  0  0
 55 56  1  0  0  0  0
 55 57  1  0  0  0  0
 57 58  1  0  0  0  0
 57 59  1  0  0  0  0
 57 60  1  0  0  0  0
 60 61  1  0  0  0  0
 60 62  1  0  0  0  0
 60 63  1  0  0  0  0
 63 64  4  0  0  0  0
 63 65  4  0  0  0  0
 55 66  1  0  0  0  0
 66 67  2  0  0  0  0
 66 68  4  0  0  0  0
 68 69  1  0  0  0  0
 68 70  1  0  0  0  0
 70 71  1  0  0  0  0
 70 72  1  0  0  0  0
 72 73  1  0  0  0  0
 72 74  1  0  0  0  0
 74 75  1  0  0  0  0
 74 76  1  0  0  0  0
 74 77  1  0  0  0  0
 72 78  1  0  0  0  0
 78 79  1  0  0  0  0
 78 80  1  0  0  0  0
 78 81  1  0  0  0  0
 70 82  1  0  0  0  0
 82 83  2  0  0  0  0
 82 84  4  0  0  0  0
 84 85  1  0  0  0  0
 84 86  1  0  0  0  0
 86 87  1  0  0  0  0
 86 88  1  0  0  0  0
 88 89  1  0  0  0  0
 88 90  1  0  0  0  0
 90 91  1  0  0  0  0
 90 92  1  0  0  0  0
 90 93  1  0  0  0  0
 88 94  1  0  0  0  0
 94 95  1  0  0  0  0
 94 96  1  0  0  0  0
 94 97  1  0  0  0  0
 97 98  1  0  0  0  0
 97 99  1  0  0  0  0
 97100  1  0  0  0  0
 86101  1  0  0  0  0
101102  2  0  0  0  0
103104  1  0  0  0  0
103105  1  0  0  0  0
105106  1  0  0  0  0
105107  1  0  0  0  0
107108  1  0  0  0  0
107109  1  0  0  0  0
107110  1  0  0  0  0
110111  4  0  0  0  0
111112  1  0  0  0  0
111113  4  0  0  0  0
113114  1  0  0  0  0
113115  4  0  0  0  0
115116  1  0  0  0  0
116117  1  0  0  0  0
115118  4  0  0  0  0
118119  1  0  0  0  0
110120  4  0  0  0  0
118120  4  0  0  0  0
120121  1  0  0  0  0
105122  1  0  0  0  0
122123  2  0  0  0  0
124125  1  0  0  0  0
124126  1  0  0  0  0
126127  1  0  0  0  0
126128  1  0  0  0  0
128129  1  0  0  0  0
128130  1  0  0  0  0
128131  1  0  0  0  0
131132  4  0  0  0  0
132133  2  0  0  0  0
133134  1  0  0  0  0
133135  4  0  0  0  0
135136  1  0  0  0  0
131137  2  0  0  0  0
135137  4  0  0  0  0
137138  1  0  0  0  0
126139  1  0  0  0  0
139140  2  0  0  0  0
141142  1  0  0  0  0
141143  1  0  0  0  0
143144  1  0  0  0  0
143145  1  0  0  0  0
145146  1  0  0  0  0
145147  1  0  0  0  0
147148  1  0  0  0  0
147149  1  0  0  0  0
147150  1  0  0  0  0
145151  1  0  0  0  0
151152  1  0  0  0  0
151153  1  0  0  0  0
151154  1  0  0  0  0
154155  1  0  0  0  0
154156  1  0  0  0  0
154157  1  0  0  0  0
143158  1  0  0  0  0
158159  2  0  0  0  0
158160  4  0  0  0  0
160161  1  0  0  0  0
160162  1  0  0  0  0
162163  1  0  0  0  0
162164  1  0  0  0  0
164165  1  0  0  0  0
164166  1  0  0  0  0
166167  1  0  0  0  0
166168  1  0  0  0  0
166169  1  0  0  0  0
164170  1  0  0  0  0
170171  1  0  0  0  0
170172  1  0  0  0  0
170173  1  0  0  0  0
173174  1  0  0  0  0
173175  1  0  0  0  0
173176  1  0  0  0  0
162177  1  0  0  0  0
177178  2  0  0  0  0
  1179  1  0  0  0  0
 31180  1  0  0  0  0
 33181  1  0  0  0  0
 51182  1  0  0  0  0
 53183  1  0  0  0  0
101184  1  0  0  0  0
103185  1  0  0  0  0
122186  1  0  0  0  0
124187  1  0  0  0  0
139188  1  0  0  0  0
141189  1  0  0  0  0
177190  1  0  0  0  0
M  CHG  1   1  -2
M  END
