 xtb: 6.7.1 (edcfbbe)
          01052609063D

 59 61  0     0  0            999 V2000
   37.2200   35.3100   37.4100 C   0  0  0  0  0  0  0  0  0  0  0  0
   37.5500   35.4900   38.7400 N   0  0  0  0  0  0  0  0  0  0  0  0
   37.7000   36.6100   39.5700 C   0  0  0  0  0  0  0  0  0  0  0  0
   38.0800   40.2600   39.3600 C   0  0  0  0  0  0  0  0  0  0  0  0
   37.3000   36.4200   41.0100 C   0  0  0  0  0  0  0  0  0  0  0  0
   37.5800   35.0500   41.5900 C   0  0  0  0  0  0  0  0  0  0  0  0
   38.9100   34.6300   41.5800 C   0  0  0  0  0  0  0  0  0  0  0  0
   39.1900   33.3300   41.9900 C   0  0  0  0  0  0  0  0  0  0  0  0
   38.2200   32.4900   42.5500 C   0  0  0  0  0  0  0  0  0  0  0  0
   36.8900   32.9200   42.5800 C   0  0  0  0  0  0  0  0  0  0  0  0
   36.6000   34.2200   42.1500 C   0  0  0  0  0  0  0  0  0  0  0  0
   37.7100   38.9500   39.7900 O   0  0  0  0  0  0  0  0  0  0  0  0
   39.0500   38.0300   38.1900 O   0  0  0  0  0  0  0  0  0  0  0  0
   38.2400   37.9100   39.0900 C   0  0  0  0  0  0  0  0  0  0  0  0
   37.4100   41.3100   40.2600 C   0  0  0  0  0  0  0  0  0  0  0  0
   36.9200   32.2500   38.8400 C   0  0  0  0  0  0  0  0  0  0  0  0
   37.1500   36.2500   36.6300 O   0  0  0  0  0  0  0  0  0  0  0  0
   35.4500   31.8500   38.6000 C   0  0  0  0  0  0  0  0  0  0  0  0
   34.5600   33.3200   37.9400 S   0  0  0  0  0  0  0  0  0  0  0  0
   35.6600   33.5500   36.4800 C   0  0  0  0  0  0  0  0  0  0  0  0
   37.1000   33.8800   36.9000 C   0  0  0  0  0  0  0  0  0  0  0  0
   37.6600   32.7900   37.7000 N   0  0  0  0  0  0  0  0  0  0  0  0
   38.5600   31.5900   36.8800 S   0  0  0  0  0  0  0  0  0  0  0  0
   39.6500   31.1500   38.2300 C   0  0  0  0  0  0  0  0  0  0  0  0
   39.5400   29.9100   38.8700 C   0  0  0  0  0  0  0  0  0  0  0  0
   40.3800   29.5600   39.9300 C   0  0  0  0  0  0  0  0  0  0  0  0
   41.3200   30.5100   40.3500 C   0  0  0  0  0  0  0  0  0  0  0  0
   41.3500   31.7800   39.7600 C   0  0  0  0  0  0  0  0  0  0  0  0
   40.5100   32.1500   38.7100 C   0  0  0  0  0  0  0  0  0  0  0  0
   39.2600   32.3300   35.8300 O   0  0  0  0  0  0  0  0  0  0  0  0
   37.6500   30.4700   36.5900 O   0  0  0  0  0  0  0  0  0  0  0  0
   42.2800   30.2700   41.4900 C   0  0  0  0  0  0  0  0  0  0  0  0
   37.5100   34.5700   39.1600 H   0  0  0  0  0  0  0  0  0  0  0  0
   39.1600   40.4500   39.4200 H   0  0  0  0  0  0  0  0  0  0  0  0
   37.6800   40.4400   38.3600 H   0  0  0  0  0  0  0  0  0  0  0  0
   37.8000   37.0900   41.7200 H   0  0  0  0  0  0  0  0  0  0  0  0
   36.2300   36.6800   41.0600 H   0  0  0  0  0  0  0  0  0  0  0  0
   39.6700   35.2700   41.1300 H   0  0  0  0  0  0  0  0  0  0  0  0
   40.2400   33.0500   42.0500 H   0  0  0  0  0  0  0  0  0  0  0  0
   38.4900   31.4900   42.8800 H   0  0  0  0  0  0  0  0  0  0  0  0
   36.1000   32.2900   42.9700 H   0  0  0  0  0  0  0  0  0  0  0  0
   35.5900   34.5900   42.2600 H   0  0  0  0  0  0  0  0  0  0  0  0
   37.7700   42.2800   39.9100 H   0  0  0  0  0  0  0  0  0  0  0  0
   37.7800   41.2500   41.2900 H   0  0  0  0  0  0  0  0  0  0  0  0
   36.3200   41.2900   40.1300 H   0  0  0  0  0  0  0  0  0  0  0  0
   36.8200   33.0000   39.6300 H   0  0  0  0  0  0  0  0  0  0  0  0
   37.6200   31.5800   39.3500 H   0  0  0  0  0  0  0  0  0  0  0  0
   35.2800   31.0100   37.9200 H   0  0  0  0  0  0  0  0  0  0  0  0
   35.0200   31.5600   39.5700 H   0  0  0  0  0  0  0  0  0  0  0  0
   35.7100   32.6200   35.9000 H   0  0  0  0  0  0  0  0  0  0  0  0
   35.2300   34.3600   35.8700 H   0  0  0  0  0  0  0  0  0  0  0  0
   37.7300   33.9700   36.0000 H   0  0  0  0  0  0  0  0  0  0  0  0
   38.8900   29.1200   38.5100 H   0  0  0  0  0  0  0  0  0  0  0  0
   40.3700   28.5600   40.3500 H   0  0  0  0  0  0  0  0  0  0  0  0
   42.0100   32.5100   40.2200 H   0  0  0  0  0  0  0  0  0  0  0  0
   40.4700   33.1900   38.4000 H   0  0  0  0  0  0  0  0  0  0  0  0
   42.8200   31.1200   41.9300 H   0  0  0  0  0  0  0  0  0  0  0  0
   43.1000   29.6200   41.1700 H   0  0  0  0  0  0  0  0  0  0  0  0
   41.7900   29.7600   42.3300 H   0  0  0  0  0  0  0  0  0  0  0  0
  1  2  1  0  0  0  0
  2  3  4  0  0  0  0
  3  5  1  0  0  0  0
  5  6  1  0  0  0  0
  6  7  4  0  0  0  0
  7  8  4  0  0  0  0
  8  9  4  0  0  0  0
  9 10  4  0  0  0  0
  6 11  4  0  0  0  0
 10 11  4  0  0  0  0
  4 12  1  0  0  0  0
  3 14  1  0  0  0  0
 12 14  1  0  0  0  0
 13 14  2  0  0  0  0
  4 15  1  0  0  0  0
  1 17  2  0  0  0  0
 16 18  1  0  0  0  0
 18 19  1  0  0  0  0
 19 20  1  0  0  0  0
  1 21  1  0  0  0  0
 20 21  1  0  0  0  0
 16 22  1  0  0  0  0
 21 22  1  0  0  0  0
 22 23  1  0  0  0  0
 23 24  1  0  0  0  0
 24 25  4  0  0  0  0
 25 26  4  0  0  0  0
 26 27  4  0  0  0  0
 27 28  4  0  0  0  0
 24 29  4  0  0  0  0
 28 29  4  0  0  0  0
 23 30  2  0  0  0  0
 23 31  2  0  0  0  0
 27 32  1  0  0  0  0
  2 33  1  0  0  0  0
  4 34  1  0  0  0  0
  4 35  1  0  0  0  0
  5 36  1  0  0  0  0
  5 37  1  0  0  0  0
  7 38  1  0  0  0  0
  8 39  1  0  0  0  0
  9 40  1  0  0  0  0
 10 41  1  0  0  0  0
 11 42  1  0  0  0  0
 15 43  1  0  0  0  0
 15 44  1  0  0  0  0
 15 45  1  0  0  0  0
 16 46  1  0  0  0  0
 16 47  1  0  0  0  0
 18 48  1  0  0  0  0
 18 49  1  0  0  0  0
 20 50  1  0  0  0  0
 20 51  1  0  0  0  0
 21 52  1  0  0  0  0
 25 53  1  0  0  0  0
 26 54  1  0  0  0  0
 28 55  1  0  0  0  0
 29 56  1  0  0  0  0
 32 57  1  0  0  0  0
 32 58  1  0  0  0  0
 32 59  1  0  0  0  0
M  CHG  1   1   1
M  END
