 xtb: 6.7.1 (edcfbbe)
          01052609073D

262260  0     0  0            999 V2000
   25.8500   30.6100   34.5200 N   0  0  0  0  0  0  0  0  0  0  0  0
   25.9700   30.3900   35.5000 H   0  0  0  0  0  0  0  0  0  0  0  0
   27.0100   30.3300   33.7000 C   0  0  0  0  0  0  0  0  0  0  0  0
   26.5600   30.4400   32.7200 H   0  0  0  0  0  0  0  0  0  0  0  0
   28.0500   31.4300   33.9200 C   0  0  0  0  0  0  0  0  0  0  0  0
   27.6100   32.4300   33.9000 H   0  0  0  0  0  0  0  0  0  0  0  0
   28.7100   31.4900   33.0600 H   0  0  0  0  0  0  0  0  0  0  0  0
   28.9700   31.1900   35.1000 C   0  0  0  0  0  0  0  0  0  0  0  0
   30.1300   30.4500   34.8800 C   0  0  0  0  0  0  0  0  0  0  0  0
   30.3300   29.9100   33.9700 H   0  0  0  0  0  0  0  0  0  0  0  0
   30.9700   30.2800   35.9900 C   0  0  0  0  0  0  0  0  0  0  0  0
   31.8800   29.7100   35.8300 H   0  0  0  0  0  0  0  0  0  0  0  0
   30.6900   30.7900   37.2700 C   0  0  0  0  0  0  0  0  0  0  0  0
   31.5300   30.5700   38.3300 O   0  0  0  0  0  0  0  0  0  0  0  0
   31.9100   29.6900   38.4100 H   0  0  0  0  0  0  0  0  0  0  0  0
   29.5300   31.5600   37.4500 C   0  0  0  0  0  0  0  0  0  0  0  0
   29.4500   31.8800   38.4800 H   0  0  0  0  0  0  0  0  0  0  0  0
   28.6500   31.6800   36.3700 C   0  0  0  0  0  0  0  0  0  0  0  0
   27.7700   32.2900   36.5300 H   0  0  0  0  0  0  0  0  0  0  0  0
   27.6800   28.9700   33.6900 C   0  0  0  0  0  0  0  0  0  0  0  0
   27.5800   28.1700   34.6200 O   0  0  0  0  0  0  0  0  0  0  0  0
   35.7200   23.7600   33.6200 N   0  0  0  0  0  0  0  0  0  0  0  0
   35.4000   24.5600   33.1100 H   0  0  0  0  0  0  0  0  0  0  0  0
   36.3800   23.9900   34.8900 C   0  0  0  0  0  0  0  0  0  0  0  0
   36.8100   23.0600   35.2700 H   0  0  0  0  0  0  0  0  0  0  0  0
   37.5300   25.0000   34.8400 C   0  0  0  0  0  0  0  0  0  0  0  0
   38.3200   24.7300   34.1300 H   0  0  0  0  0  0  0  0  0  0  0  0
   37.9900   25.0000   35.8200 H   0  0  0  0  0  0  0  0  0  0  0  0
   37.0600   26.4000   34.5100 C   0  0  0  0  0  0  0  0  0  0  0  0
   37.3100   26.9000   33.2300 C   0  0  0  0  0  0  0  0  0  0  0  0
   37.7100   26.2100   32.5000 H   0  0  0  0  0  0  0  0  0  0  0  0
   37.2900   28.2600   32.9000 C   0  0  0  0  0  0  0  0  0  0  0  0
   37.6200   28.5700   31.9200 H   0  0  0  0  0  0  0  0  0  0  0  0
   36.8500   29.1400   33.9000 C   0  0  0  0  0  0  0  0  0  0  0  0
   37.0700   30.2000   33.8600 H   0  0  0  0  0  0  0  0  0  0  0  0
   36.6000   28.6800   35.1900 C   0  0  0  0  0  0  0  0  0  0  0  0
   36.5000   29.3800   36.0000 H   0  0  0  0  0  0  0  0  0  0  0  0
   36.7600   27.3200   35.5200 C   0  0  0  0  0  0  0  0  0  0  0  0
   36.6700   26.9900   36.5400 H   0  0  0  0  0  0  0  0  0  0  0  0
   35.3800   24.3700   35.9800 C   0  0  0  0  0  0  0  0  0  0  0  0
   35.5700   24.0000   37.1400 O   0  0  0  0  0  0  0  0  0  0  0  0
   34.3000   25.0900   35.6800 N   0  0  0  0  0  0  0  0  0  0  0  0
   34.1500   25.3100   34.7000 H   0  0  0  0  0  0  0  0  0  0  0  0
   33.3100   25.5100   36.6500 C   0  0  0  0  0  0  0  0  0  0  0  0
   33.2400   24.7000   37.3800 H   0  0  0  0  0  0  0  0  0  0  0  0
   33.8800   26.7700   37.2900 C   0  0  0  0  0  0  0  0  0  0  0  0
   34.0200   27.6600   36.6700 H   0  0  0  0  0  0  0  0  0  0  0  0
   34.8400   26.5300   37.7300 H   0  0  0  0  0  0  0  0  0  0  0  0
   33.1900   27.1500   38.5900 C   0  0  0  0  0  0  0  0  0  0  0  0
   32.3600   28.0800   38.6100 O   0  0  0  0  0  0  0  0  0  0  0  0
   33.5300   26.5500   39.6300 O   0  0  0  0  0  0  0  0  0  0  0  0
   31.9100   25.7700   36.1100 C   0  0  0  0  0  0  0  0  0  0  0  0
   31.8300   26.1100   34.9400 O   0  0  0  0  0  0  0  0  0  0  0  0
   25.8900   23.8000   40.2700 N   0  0  0  0  0  0  0  0  0  0  0  0
   26.3200   24.5700   39.7800 H   0  0  0  0  0  0  0  0  0  0  0  0
   25.5000   24.2100   41.6100 C   0  0  0  0  0  0  0  0  0  0  0  0
   25.4600   23.2700   42.1700 H   0  0  0  0  0  0  0  0  0  0  0  0
   26.5500   25.1800   42.1500 C   0  0  0  0  0  0  0  0  0  0  0  0
   26.3100   25.3400   43.2000 H   0  0  0  0  0  0  0  0  0  0  0  0
   26.4800   26.1000   41.5600 H   0  0  0  0  0  0  0  0  0  0  0  0
   27.9500   24.5800   42.0500 C   0  0  0  0  0  0  0  0  0  0  0  0
   28.1700   24.4400   40.9900 H   0  0  0  0  0  0  0  0  0  0  0  0
   27.8900   23.5900   42.4900 H   0  0  0  0  0  0  0  0  0  0  0  0
   28.9200   25.5000   42.7800 C   0  0  0  0  0  0  0  0  0  0  0  0
   29.8100   24.8800   42.9300 H   0  0  0  0  0  0  0  0  0  0  0  0
   28.4500   25.8000   43.7100 H   0  0  0  0  0  0  0  0  0  0  0  0
   29.1600   26.7300   42.0100 N   0  0  0  0  0  0  0  0  0  0  0  0
   28.3300   27.2900   41.8800 H   0  0  0  0  0  0  0  0  0  0  0  0
   30.1600   26.9500   41.1500 C   0  0  0  0  0  0  0  0  0  0  0  0
   31.2300   26.1700   40.9700 N   0  0  0  0  0  0  0  0  0  0  0  0
   31.3600   25.3300   41.5000 H   0  0  0  0  0  0  0  0  0  0  0  0
   32.0600   26.5100   40.5000 H   0  0  0  0  0  0  0  0  0  0  0  0
   30.1100   28.0700   40.4100 N   0  0  0  0  0  0  0  0  0  0  0  0
   29.4300   28.8000   40.5800 H   0  0  0  0  0  0  0  0  0  0  0  0
   30.9100   28.1600   39.8100 H   0  0  0  0  0  0  0  0  0  0  0  0
   24.1100   24.8000   41.7800 C   0  0  0  0  0  0  0  0  0  0  0  0
   23.7700   25.3800   42.8100 O   0  0  0  0  0  0  0  0  0  0  0  0
   24.9600   33.0200   40.0000 N   0  0  0  0  0  0  0  0  0  0  0  0
   24.8800   32.8600   39.0000 H   0  0  0  0  0  0  0  0  0  0  0  0
   26.1400   33.7400   40.4200 C   0  0  0  0  0  0  0  0  0  0  0  0
   26.2900   33.3500   41.4300 H   0  0  0  0  0  0  0  0  0  0  0  0
   27.2800   33.2800   39.5200 C   0  0  0  0  0  0  0  0  0  0  0  0
   26.8400   33.2900   38.5200 H   0  0  0  0  0  0  0  0  0  0  0  0
   27.5500   32.2500   39.7600 H   0  0  0  0  0  0  0  0  0  0  0  0
   28.5000   34.1700   39.5200 C   0  0  0  0  0  0  0  0  0  0  0  0
   29.0600   34.7500   38.3700 C   0  0  0  0  0  0  0  0  0  0  0  0
   28.5900   34.6300   37.4100 H   0  0  0  0  0  0  0  0  0  0  0  0
   30.2700   35.4400   38.4100 C   0  0  0  0  0  0  0  0  0  0  0  0
   30.8300   35.8200   37.5700 H   0  0  0  0  0  0  0  0  0  0  0  0
   30.8800   35.7000   39.6400 C   0  0  0  0  0  0  0  0  0  0  0  0
   31.7800   36.3000   39.6800 H   0  0  0  0  0  0  0  0  0  0  0  0
   30.4300   35.0300   40.7900 C   0  0  0  0  0  0  0  0  0  0  0  0
   31.0400   35.1400   41.6700 H   0  0  0  0  0  0  0  0  0  0  0  0
   29.2700   34.2500   40.6900 C   0  0  0  0  0  0  0  0  0  0  0  0
   28.9000   33.7700   41.5900 H   0  0  0  0  0  0  0  0  0  0  0  0
   25.7900   35.2200   40.4900 C   0  0  0  0  0  0  0  0  0  0  0  0
   25.2100   35.7900   39.5600 O   0  0  0  0  0  0  0  0  0  0  0  0
   26.1600   35.9100   41.5700 N   0  0  0  0  0  0  0  0  0  0  0  0
   26.7900   35.4800   42.2300 H   0  0  0  0  0  0  0  0  0  0  0  0
   25.8400   37.3100   41.7700 C   0  0  0  0  0  0  0  0  0  0  0  0
   25.4400   37.7400   40.8500 H   0  0  0  0  0  0  0  0  0  0  0  0
   24.8500   37.6400   42.8900 C   0  0  0  0  0  0  0  0  0  0  0  0
   24.5200   38.6700   42.7300 H   0  0  0  0  0  0  0  0  0  0  0  0
   25.3600   37.5900   43.8500 H   0  0  0  0  0  0  0  0  0  0  0  0
   23.6000   36.7800   42.9200 C   0  0  0  0  0  0  0  0  0  0  0  0
   23.8400   35.7400   43.1500 H   0  0  0  0  0  0  0  0  0  0  0  0
   23.1900   36.7600   41.9100 H   0  0  0  0  0  0  0  0  0  0  0  0
   22.4900   37.2100   43.8700 C   0  0  0  0  0  0  0  0  0  0  0  0
   21.6200   36.5800   43.7000 H   0  0  0  0  0  0  0  0  0  0  0  0
   22.1800   38.2600   43.8300 H   0  0  0  0  0  0  0  0  0  0  0  0
   22.9700   37.0700   45.3100 C   0  0  0  0  0  0  0  0  0  0  0  0
   23.4800   37.9700   45.6300 H   0  0  0  0  0  0  0  0  0  0  0  0
   23.6400   36.2300   45.5300 H   0  0  0  0  0  0  0  0  0  0  0  0
   21.8100   36.9100   46.2000 N   0  0  0  0  0  0  0  0  0  0  0  0
   22.0700   37.0600   47.1700 H   0  0  0  0  0  0  0  0  0  0  0  0
   21.1300   37.6500   46.0500 H   0  0  0  0  0  0  0  0  0  0  0  0
   21.3000   36.0400   46.2300 H   0  0  0  0  0  0  0  0  0  0  0  0
   27.1600   38.0100   42.0100 C   0  0  0  0  0  0  0  0  0  0  0  0
   28.0300   37.4000   42.6300 O   0  0  0  0  0  0  0  0  0  0  0  0
   27.1800   39.2600   41.5400 N   0  0  0  0  0  0  0  0  0  0  0  0
   26.4000   39.5800   40.9800 H   0  0  0  0  0  0  0  0  0  0  0  0
   28.2700   40.1700   41.8300 C   0  0  0  0  0  0  0  0  0  0  0  0
   28.4300   40.1200   42.9100 H   0  0  0  0  0  0  0  0  0  0  0  0
   29.6300   39.8700   41.2100 C   0  0  0  0  0  0  0  0  0  0  0  0
   29.9900   38.9300   41.6200 H   0  0  0  0  0  0  0  0  0  0  0  0
   30.3500   40.6300   41.5200 H   0  0  0  0  0  0  0  0  0  0  0  0
   29.6900   39.9400   39.7000 C   0  0  0  0  0  0  0  0  0  0  0  0
   29.9300   41.1500   39.0400 C   0  0  0  0  0  0  0  0  0  0  0  0
   30.1300   42.0300   39.6200 H   0  0  0  0  0  0  0  0  0  0  0  0
   29.8000   41.1700   37.6400 C   0  0  0  0  0  0  0  0  0  0  0  0
   30.0800   42.0900   37.1500 H   0  0  0  0  0  0  0  0  0  0  0  0
   29.6000   40.0100   36.9000 C   0  0  0  0  0  0  0  0  0  0  0  0
   29.5700   40.0200   35.8200 H   0  0  0  0  0  0  0  0  0  0  0  0
   29.3900   38.7900   37.5500 C   0  0  0  0  0  0  0  0  0  0  0  0
   29.1500   37.8700   37.0300 H   0  0  0  0  0  0  0  0  0  0  0  0
   29.3600   38.8000   38.9500 C   0  0  0  0  0  0  0  0  0  0  0  0
   29.0900   37.9100   39.5000 H   0  0  0  0  0  0  0  0  0  0  0  0
   27.8500   41.6100   41.5600 C   0  0  0  0  0  0  0  0  0  0  0  0
   26.8600   41.8100   40.8500 O   0  0  0  0  0  0  0  0  0  0  0  0
   34.7600   43.3200   42.9300 N   0  0  0  0  0  0  0  0  0  0  0  0
   34.0000   43.9800   42.9300 H   0  0  0  0  0  0  0  0  0  0  0  0
   34.6200   42.1200   43.7500 C   0  0  0  0  0  0  0  0  0  0  0  0
   35.4700   42.0800   44.4200 H   0  0  0  0  0  0  0  0  0  0  0  0
   33.3500   42.1000   44.5900 C   0  0  0  0  0  0  0  0  0  0  0  0
   33.4000   43.0700   45.0800 H   0  0  0  0  0  0  0  0  0  0  0  0
   33.4900   41.3000   45.3200 H   0  0  0  0  0  0  0  0  0  0  0  0
   31.9800   41.8600   43.9600 C   0  0  0  0  0  0  0  0  0  0  0  0
   32.0700   40.9800   43.3100 H   0  0  0  0  0  0  0  0  0  0  0  0
   31.7600   42.7700   43.4000 H   0  0  0  0  0  0  0  0  0  0  0  0
   30.8100   41.8800   44.9200 C   0  0  0  0  0  0  0  0  0  0  0  0
   30.9400   42.3000   46.0900 O   0  0  0  0  0  0  0  0  0  0  0  0
   29.6700   41.4600   44.6200 O   0  0  0  0  0  0  0  0  0  0  0  0
   34.7300   40.8000   43.0000 C   0  0  0  0  0  0  0  0  0  0  0  0
   34.9300   39.7300   43.5700 O   0  0  0  0  0  0  0  0  0  0  0  0
   34.7900   40.8400   41.6600 N   0  0  0  0  0  0  0  0  0  0  0  0
   34.7900   41.7900   41.3300 H   0  0  0  0  0  0  0  0  0  0  0  0
   35.1300   39.7800   40.7400 C   0  0  0  0  0  0  0  0  0  0  0  0
   35.4100   38.9100   41.3300 H   0  0  0  0  0  0  0  0  0  0  0  0
   33.9400   39.4300   39.8400 C   0  0  0  0  0  0  0  0  0  0  0  0
   34.2300   38.6800   39.1100 H   0  0  0  0  0  0  0  0  0  0  0  0
   32.8200   38.8900   40.7300 C   0  0  0  0  0  0  0  0  0  0  0  0
   32.0700   38.3500   40.1500 H   0  0  0  0  0  0  0  0  0  0  0  0
   33.2300   38.1700   41.4400 H   0  0  0  0  0  0  0  0  0  0  0  0
   32.4200   39.7700   41.2400 H   0  0  0  0  0  0  0  0  0  0  0  0
   33.5300   40.6500   39.0300 C   0  0  0  0  0  0  0  0  0  0  0  0
   34.3500   41.0100   38.4000 H   0  0  0  0  0  0  0  0  0  0  0  0
   32.7300   40.3300   38.3700 H   0  0  0  0  0  0  0  0  0  0  0  0
   33.3000   41.4400   39.7500 H   0  0  0  0  0  0  0  0  0  0  0  0
   36.2900   40.2500   39.8700 C   0  0  0  0  0  0  0  0  0  0  0  0
   36.6100   41.4300   39.8700 O   0  0  0  0  0  0  0  0  0  0  0  0
   43.3200   35.7400   35.8800 N   0  0  0  0  0  0  0  0  0  0  0  0
   42.8000   35.0200   35.4000 H   0  0  0  0  0  0  0  0  0  0  0  0
   44.2900   35.1900   36.8000 C   0  0  0  0  0  0  0  0  0  0  0  0
   44.1900   35.8200   37.6700 H   0  0  0  0  0  0  0  0  0  0  0  0
   43.9500   33.7600   37.2400 C   0  0  0  0  0  0  0  0  0  0  0  0
   44.7900   33.5600   37.9000 H   0  0  0  0  0  0  0  0  0  0  0  0
   44.0100   32.9800   36.4800 H   0  0  0  0  0  0  0  0  0  0  0  0
   42.6100   33.6100   37.9100 C   0  0  0  0  0  0  0  0  0  0  0  0
   41.7300   32.7100   37.3000 C   0  0  0  0  0  0  0  0  0  0  0  0
   42.0200   32.2400   36.3700 H   0  0  0  0  0  0  0  0  0  0  0  0
   40.4200   32.5900   37.7800 C   0  0  0  0  0  0  0  0  0  0  0  0
   39.7200   31.9600   37.2500 H   0  0  0  0  0  0  0  0  0  0  0  0
   39.9900   33.3900   38.8600 C   0  0  0  0  0  0  0  0  0  0  0  0
   38.6800   33.3600   39.2100 O   0  0  0  0  0  0  0  0  0  0  0  0
   38.1200   32.8400   38.6300 H   0  0  0  0  0  0  0  0  0  0  0  0
   40.9100   34.3000   39.4300 C   0  0  0  0  0  0  0  0  0  0  0  0
   40.5000   34.8300   40.2800 H   0  0  0  0  0  0  0  0  0  0  0  0
   42.2300   34.4200   38.9800 C   0  0  0  0  0  0  0  0  0  0  0  0
   43.0200   34.9900   39.4500 H   0  0  0  0  0  0  0  0  0  0  0  0
   45.7200   35.2200   36.2600 C   0  0  0  0  0  0  0  0  0  0  0  0
   46.6400   34.9800   37.0400 O   0  0  0  0  0  0  0  0  0  0  0  0
   45.2800   29.7100   38.6700 N   0  0  0  0  0  0  0  0  0  0  0  0
   45.2900   28.9900   37.9700 H   0  0  0  0  0  0  0  0  0  0  0  0
   44.6900   29.2900   39.9200 C   0  0  0  0  0  0  0  0  0  0  0  0
   44.9800   29.9200   40.7600 H   0  0  0  0  0  0  0  0  0  0  0  0
   43.1700   29.3800   39.8900 C   0  0  0  0  0  0  0  0  0  0  0  0
   42.7900   28.5900   39.2400 H   0  0  0  0  0  0  0  0  0  0  0  0
   42.8300   30.3100   39.4400 H   0  0  0  0  0  0  0  0  0  0  0  0
   42.4700   29.2500   41.2200 C   0  0  0  0  0  0  0  0  0  0  0  0
   41.7900   30.2600   41.9000 N   0  0  0  0  0  0  0  0  0  0  0  0
   41.4400   29.6500   43.0300 C   0  0  0  0  0  0  0  0  0  0  0  0
   40.7800   30.1300   43.7500 H   0  0  0  0  0  0  0  0  0  0  0  0
   41.8100   28.3600   43.0400 N   0  0  0  0  0  0  0  0  0  0  0  0
   41.7100   27.7000   43.7900 H   0  0  0  0  0  0  0  0  0  0  0  0
   42.4000   28.0300   41.8300 C   0  0  0  0  0  0  0  0  0  0  0  0
   42.9500   27.1100   41.6900 H   0  0  0  0  0  0  0  0  0  0  0  0
   45.2800   27.9200   40.2500 C   0  0  0  0  0  0  0  0  0  0  0  0
   45.2000   27.1300   39.3100 O   0  0  0  0  0  0  0  0  0  0  0  0
   44.1500   23.7400   38.3600 N   0  0  0  0  0  0  0  0  0  0  0  0
   44.4700   24.6700   38.6000 H   0  0  0  0  0  0  0  0  0  0  0  0
   42.8500   23.8000   37.7300 C   0  0  0  0  0  0  0  0  0  0  0  0
   42.8400   22.8400   37.2100 H   0  0  0  0  0  0  0  0  0  0  0  0
   41.7000   23.8400   38.7300 C   0  0  0  0  0  0  0  0  0  0  0  0
   41.7400   22.9800   39.4000 H   0  0  0  0  0  0  0  0  0  0  0  0
   41.8500   25.1100   39.5600 C   0  0  0  0  0  0  0  0  0  0  0  0
   40.9700   25.2500   40.1700 H   0  0  0  0  0  0  0  0  0  0  0  0
   42.7600   25.2600   40.1500 H   0  0  0  0  0  0  0  0  0  0  0  0
   41.8400   25.9400   38.8500 H   0  0  0  0  0  0  0  0  0  0  0  0
   40.3500   23.6300   38.0500 C   0  0  0  0  0  0  0  0  0  0  0  0
   40.5300   22.7900   37.3900 H   0  0  0  0  0  0  0  0  0  0  0  0
   40.1200   24.5100   37.4400 H   0  0  0  0  0  0  0  0  0  0  0  0
   39.1200   23.3000   38.9000 C   0  0  0  0  0  0  0  0  0  0  0  0
   38.2300   23.1500   38.2800 H   0  0  0  0  0  0  0  0  0  0  0  0
   39.2500   22.2800   39.2700 H   0  0  0  0  0  0  0  0  0  0  0  0
   39.0000   24.1000   39.6100 H   0  0  0  0  0  0  0  0  0  0  0  0
   42.7200   24.8600   36.6400 C   0  0  0  0  0  0  0  0  0  0  0  0
   42.1000   24.5900   35.6200 O   0  0  0  0  0  0  0  0  0  0  0  0
   43.3200   26.0400   36.7800 N   0  0  0  0  0  0  0  0  0  0  0  0
   43.8000   26.2900   37.6300 H   0  0  0  0  0  0  0  0  0  0  0  0
   43.5000   26.9400   35.6600 C   0  0  0  0  0  0  0  0  0  0  0  0
   43.1700   26.4600   34.7400 H   0  0  0  0  0  0  0  0  0  0  0  0
   42.6400   28.1700   35.9700 C   0  0  0  0  0  0  0  0  0  0  0  0
   43.1000   28.7700   36.7600 H   0  0  0  0  0  0  0  0  0  0  0  0
   42.7900   29.0600   34.7400 C   0  0  0  0  0  0  0  0  0  0  0  0
   42.3100   28.5300   33.9200 H   0  0  0  0  0  0  0  0  0  0  0  0
   42.2900   30.0300   34.8600 H   0  0  0  0  0  0  0  0  0  0  0  0
   43.8400   29.2700   34.5300 H   0  0  0  0  0  0  0  0  0  0  0  0
   41.1700   27.8700   36.2000 C   0  0  0  0  0  0  0  0  0  0  0  0
   40.9700   27.1200   36.9700 H   0  0  0  0  0  0  0  0  0  0  0  0
   40.9000   27.3800   35.2700 H   0  0  0  0  0  0  0  0  0  0  0  0
   40.2800   29.0700   36.5400 C   0  0  0  0  0  0  0  0  0  0  0  0
   40.1900   29.7400   35.6900 H   0  0  0  0  0  0  0  0  0  0  0  0
   39.2300   28.7800   36.6600 H   0  0  0  0  0  0  0  0  0  0  0  0
   40.6900   29.4400   37.4800 H   0  0  0  0  0  0  0  0  0  0  0  0
   44.9600   27.3000   35.4400 C   0  0  0  0  0  0  0  0  0  0  0  0
   45.5200   27.7500   36.4300 O   0  0  0  0  0  0  0  0  0  0  0  0
   25.1040   31.2270   34.2310 H   0  0  0  0  0  0  0  0  0  0  0  0
   28.3140   28.7560   32.8170 H   0  0  0  0  0  0  0  0  0  0  0  0
   35.6970   22.9000   33.0920 H   0  0  0  0  0  0  0  0  0  0  0  0
   31.0300   25.6550   36.7600 H   0  0  0  0  0  0  0  0  0  0  0  0
   25.7080   22.9420   39.7690 H   0  0  0  0  0  0  0  0  0  0  0  0
   23.3940   24.6600   40.9570 H   0  0  0  0  0  0  0  0  0  0  0  0
   24.1780   32.7620   40.5850 H   0  0  0  0  0  0  0  0  0  0  0  0
   28.3120   42.4350   42.1210 H   0  0  0  0  0  0  0  0  0  0  0  0
   35.6320   43.6530   42.5440 H   0  0  0  0  0  0  0  0  0  0  0  0
   36.7830   39.5110   39.2210 H   0  0  0  0  0  0  0  0  0  0  0  0
   42.9650   36.6850   35.8950 H   0  0  0  0  0  0  0  0  0  0  0  0
   45.8860   35.5260   35.2170 H   0  0  0  0  0  0  0  0  0  0  0  0
   45.6490   30.6370   38.5120 H   0  0  0  0  0  0  0  0  0  0  0  0
   45.6000   27.6000   41.2520 H   0  0  0  0  0  0  0  0  0  0  0  0
   44.5060   22.9380   38.8600 H   0  0  0  0  0  0  0  0  0  0  0  0
   45.4760   27.1440   34.4810 H   0  0  0  0  0  0  0  0  0  0  0  0
  1  2  1  0  0  0  0
  1  3  1  0  0  0  0
  3  4  1  0  0  0  0
  3  5  1  0  0  0  0
  5  6  1  0  0  0  0
  5  7  1  0  0  0  0
  5  8  1  0  0  0  0
  8  9  4  0  0  0  0
  9 10  1  0  0  0  0
  9 11  4  0  0  0  0
 11 12  1  0  0  0  0
 11 13  4  0  0  0  0
 13 14  1  0  0  0  0
 14 15  1  0  0  0  0
 13 16  4  0  0  0  0
 16 17  1  0  0  0  0
  8 18  4  0  0  0  0
 16 18  4  0  0  0  0
 18 19  1  0  0  0  0
  3 20  1  0  0  0  0
 20 21  2  0  0  0  0
 22 23  1  0  0  0  0
 22 24  1  0  0  0  0
 24 25  1  0  0  0  0
 24 26  1  0  0  0  0
 26 27  1  0  0  0  0
 26 28  1  0  0  0  0
 26 29  1  0  0  0  0
 29 30  4  0  0  0  0
 30 31  1  0  0  0  0
 30 32  4  0  0  0  0
 32 33  1  0  0  0  0
 32 34  4  0  0  0  0
 34 35  1  0  0  0  0
 34 36  4  0  0  0  0
 36 37  1  0  0  0  0
 29 38  4  0  0  0  0
 36 38  4  0  0  0  0
 38 39  1  0  0  0  0
 24 40  1  0  0  0  0
 40 41  2  0  0  0  0
 40 42  4  0  0  0  0
 42 43  1  0  0  0  0
 42 44  1  0  0  0  0
 44 45  1  0  0  0  0
 44 46  1  0  0  0  0
 46 47  1  0  0  0  0
 46 48  1  0  0  0  0
 46 49  1  0  0  0  0
 49 50  4  0  0  0  0
 49 51  4  0  0  0  0
 44 52  1  0  0  0  0
 52 53  2  0  0  0  0
 54 55  1  0  0  0  0
 54 56  1  0  0  0  0
 56 57  1  0  0  0  0
 56 58  1  0  0  0  0
 58 59  1  0  0  0  0
 58 60  1  0  0  0  0
 58 61  1  0  0  0  0
 61 62  1  0  0  0  0
 61 63  1  0  0  0  0
 61 64  1  0  0  0  0
 64 65  1  0  0  0  0
 64 66  1  0  0  0  0
 64 67  1  0  0  0  0
 67 68  1  0  0  0  0
 67 69  4  0  0  0  0
 69 70  4  0  0  0  0
 70 71  1  0  0  0  0
 70 72  1  0  0  0  0
 69 73  4  0  0  0  0
 73 74  1  0  0  0  0
 73 75  1  0  0  0  0
 56 76  1  0  0  0  0
 76 77  2  0  0  0  0
 78 79  1  0  0  0  0
 78 80  1  0  0  0  0
 80 81  1  0  0  0  0
 80 82  1  0  0  0  0
 82 83  1  0  0  0  0
 82 84  1  0  0  0  0
 82 85  1  0  0  0  0
 85 86  4  0  0  0  0
 86 87  1  0  0  0  0
 86 88  4  0  0  0  0
 88 89  1  0  0  0  0
 88 90  4  0  0  0  0
 90 91  1  0  0  0  0
 90 92  4  0  0  0  0
 92 93  1  0  0  0  0
 85 94  4  0  0  0  0
 92 94  4  0  0  0  0
 94 95  1  0  0  0  0
 80 96  1  0  0  0  0
 96 97  2  0  0  0  0
 96 98  4  0  0  0  0
 98 99  1  0  0  0  0
 98100  1  0  0  0  0
100101  1  0  0  0  0
100102  1  0  0  0  0
102103  1  0  0  0  0
102104  1  0  0  0  0
102105  1  0  0  0  0
105106  1  0  0  0  0
105107  1  0  0  0  0
105108  1  0  0  0  0
108109  1  0  0  0  0
108110  1  0  0  0  0
108111  1  0  0  0  0
111112  1  0  0  0  0
111113  1  0  0  0  0
111114  1  0  0  0  0
114115  1  0  0  0  0
114116  1  0  0  0  0
114117  1  0  0  0  0
100118  1  0  0  0  0
118119  2  0  0  0  0
118120  4  0  0  0  0
120121  1  0  0  0  0
120122  1  0  0  0  0
122123  1  0  0  0  0
122124  1  0  0  0  0
124125  1  0  0  0  0
124126  1  0  0  0  0
124127  1  0  0  0  0
127128  4  0  0  0  0
128129  1  0  0  0  0
128130  4  0  0  0  0
130131  1  0  0  0  0
130132  4  0  0  0  0
132133  1  0  0  0  0
132134  4  0  0  0  0
134135  1  0  0  0  0
127136  4  0  0  0  0
134136  4  0  0  0  0
136137  1  0  0  0  0
122138  1  0  0  0  0
138139  2  0  0  0  0
140141  1  0  0  0  0
140142  1  0  0  0  0
142143  1  0  0  0  0
142144  1  0  0  0  0
144145  1  0  0  0  0
144146  1  0  0  0  0
144147  1  0  0  0  0
147148  1  0  0  0  0
147149  1  0  0  0  0
147150  1  0  0  0  0
150151  4  0  0  0  0
150152  4  0  0  0  0
142153  1  0  0  0  0
153154  2  0  0  0  0
153155  4  0  0  0  0
155156  1  0  0  0  0
155157  1  0  0  0  0
157158  1  0  0  0  0
157159  1  0  0  0  0
159160  1  0  0  0  0
159161  1  0  0  0  0
161162  1  0  0  0  0
161163  1  0  0  0  0
161164  1  0  0  0  0
159165  1  0  0  0  0
165166  1  0  0  0  0
165167  1  0  0  0  0
165168  1  0  0  0  0
157169  1  0  0  0  0
169170  2  0  0  0  0
171172  1  0  0  0  0
171173  1  0  0  0  0
173174  1  0  0  0  0
173175  1  0  0  0  0
175176  1  0  0  0  0
175177  1  0  0  0  0
175178  1  0  0  0  0
178179  4  0  0  0  0
179180  1  0  0  0  0
179181  4  0  0  0  0
181182  1  0  0  0  0
181183  4  0  0  0  0
183184  1  0  0  0  0
184185  1  0  0  0  0
183186  4  0  0  0  0
186187  1  0  0  0  0
178188  4  0  0  0  0
186188  4  0  0  0  0
188189  1  0  0  0  0
173190  1  0  0  0  0
190191  2  0  0  0  0
192193  1  0  0  0  0
192194  1  0  0  0  0
194195  1  0  0  0  0
194196  1  0  0  0  0
196197  1  0  0  0  0
196198  1  0  0  0  0
196199  1  0  0  0  0
199200  4  0  0  0  0
200201  2  0  0  0  0
201202  1  0  0  0  0
201203  4  0  0  0  0
203204  1  0  0  0  0
199205  2  0  0  0  0
203205  1  0  0  0  0
205206  1  0  0  0  0
194207  1  0  0  0  0
207208  2  0  0  0  0
209210  1  0  0  0  0
209211  1  0  0  0  0
211212  1  0  0  0  0
211213  1  0  0  0  0
213214  1  0  0  0  0
213215  1  0  0  0  0
215216  1  0  0  0  0
215217  1  0  0  0  0
215218  1  0  0  0  0
213219  1  0  0  0  0
219220  1  0  0  0  0
219221  1  0  0  0  0
219222  1  0  0  0  0
222223  1  0  0  0  0
222224  1  0  0  0  0
222225  1  0  0  0  0
211226  1  0  0  0  0
226227  2  0  0  0  0
226228  4  0  0  0  0
228229  1  0  0  0  0
228230  1  0  0  0  0
230231  1  0  0  0  0
230232  1  0  0  0  0
232233  1  0  0  0  0
232234  1  0  0  0  0
234235  1  0  0  0  0
234236  1  0  0  0  0
234237  1  0  0  0  0
232238  1  0  0  0  0
238239  1  0  0  0  0
238240  1  0  0  0  0
238241  1  0  0  0  0
241242  1  0  0  0  0
241243  1  0  0  0  0
241244  1  0  0  0  0
230245  1  0  0  0  0
245246  2  0  0  0  0
  1247  1  0  0  0  0
 20248  1  0  0  0  0
 22249  1  0  0  0  0
 52250  1  0  0  0  0
 54251  1  0  0  0  0
 76252  1  0  0  0  0
 78253  1  0  0  0  0
138254  1  0  0  0  0
140255  1  0  0  0  0
169256  1  0  0  0  0
171257  1  0  0  0  0
190258  1  0  0  0  0
192259  1  0  0  0  0
207260  1  0  0  0  0
209261  1  0  0  0  0
245262  1  0  0  0  0
M  END
