 xtb: 6.7.1 (edcfbbe)
          01052609073D

 59 61  0     0  0            999 V2000
   23.6400    2.5300   54.1500 C   0  0  0  0  0  0  0  0  0  0  0  0
   23.5600    3.0200   55.4400 N   0  0  0  0  0  0  0  0  0  0  0  0
   24.4300    2.9700   56.5400 C   0  0  0  0  0  0  0  0  0  0  0  0
   24.5000    4.5300   59.9200 C   0  0  0  0  0  0  0  0  0  0  0  0
   25.8700    2.6000   56.2500 C   0  0  0  0  0  0  0  0  0  0  0  0
   26.6700    3.7400   55.6500 C   0  0  0  0  0  0  0  0  0  0  0  0
   27.2800    3.5500   54.4100 C   0  0  0  0  0  0  0  0  0  0  0  0
   27.8500    4.6400   53.7500 C   0  0  0  0  0  0  0  0  0  0  0  0
   27.8500    5.9100   54.3400 C   0  0  0  0  0  0  0  0  0  0  0  0
   27.2700    6.0900   55.6000 C   0  0  0  0  0  0  0  0  0  0  0  0
   26.6800    5.0000   56.2400 C   0  0  0  0  0  0  0  0  0  0  0  0
   24.8100    3.7800   58.7500 O   0  0  0  0  0  0  0  0  0  0  0  0
   22.8400    4.2800   57.7200 O   0  0  0  0  0  0  0  0  0  0  0  0
   23.9300    3.7300   57.7100 C   0  0  0  0  0  0  0  0  0  0  0  0
   24.6900    6.0500   59.7700 C   0  0  0  0  0  0  0  0  0  0  0  0
   20.4500    1.8200   54.1000 C   0  0  0  0  0  0  0  0  0  0  0  0
   24.3700    1.6100   53.8300 O   0  0  0  0  0  0  0  0  0  0  0  0
   19.6900    3.1000   54.4700 C   0  0  0  0  0  0  0  0  0  0  0  0
   20.8100    4.4500   55.0200 S   0  0  0  0  0  0  0  0  0  0  0  0
   21.8300    4.3400   53.5000 C   0  0  0  0  0  0  0  0  0  0  0  0
   22.5100    2.9900   53.2200 C   0  0  0  0  0  0  0  0  0  0  0  0
   21.3900    2.0700   53.0000 N   0  0  0  0  0  0  0  0  0  0  0  0
   21.7600    0.7400   52.0000 S   0  0  0  0  0  0  0  0  0  0  0  0
   20.2300    0.6600   51.0800 C   0  0  0  0  0  0  0  0  0  0  0  0
   19.5700    1.8100   50.6400 C   0  0  0  0  0  0  0  0  0  0  0  0
   18.3300    1.6700   50.0300 C   0  0  0  0  0  0  0  0  0  0  0  0
   17.6200    0.4600   49.9900 C   0  0  0  0  0  0  0  0  0  0  0  0
   18.2500   -0.6600   50.5500 C   0  0  0  0  0  0  0  0  0  0  0  0
   19.5700   -0.5800   51.0100 C   0  0  0  0  0  0  0  0  0  0  0  0
   21.9900   -0.4500   52.8200 O   0  0  0  0  0  0  0  0  0  0  0  0
   22.7100    1.2200   50.9900 O   0  0  0  0  0  0  0  0  0  0  0  0
   16.2100    0.3500   49.4400 C   0  0  0  0  0  0  0  0  0  0  0  0
   22.6900    3.4800   55.7000 H   0  0  0  0  0  0  0  0  0  0  0  0
   23.4200    4.4800   60.1100 H   0  0  0  0  0  0  0  0  0  0  0  0
   25.0700    4.1400   60.7800 H   0  0  0  0  0  0  0  0  0  0  0  0
   26.3300    2.2700   57.1900 H   0  0  0  0  0  0  0  0  0  0  0  0
   25.9700    1.6600   55.7000 H   0  0  0  0  0  0  0  0  0  0  0  0
   27.2600    2.5700   53.9300 H   0  0  0  0  0  0  0  0  0  0  0  0
   28.3800    4.4700   52.8200 H   0  0  0  0  0  0  0  0  0  0  0  0
   28.3200    6.7200   53.7800 H   0  0  0  0  0  0  0  0  0  0  0  0
   27.2600    7.0800   56.0600 H   0  0  0  0  0  0  0  0  0  0  0  0
   26.1100    5.1600   57.1500 H   0  0  0  0  0  0  0  0  0  0  0  0
   24.2400    6.6000   60.6000 H   0  0  0  0  0  0  0  0  0  0  0  0
   24.2200    6.4800   58.8800 H   0  0  0  0  0  0  0  0  0  0  0  0
   25.7700    6.1600   59.6200 H   0  0  0  0  0  0  0  0  0  0  0  0
   20.8700    1.3900   55.0100 H   0  0  0  0  0  0  0  0  0  0  0  0
   19.7200    1.0600   53.8000 H   0  0  0  0  0  0  0  0  0  0  0  0
   19.0500    3.5600   53.7000 H   0  0  0  0  0  0  0  0  0  0  0  0
   18.9600    2.9200   55.2800 H   0  0  0  0  0  0  0  0  0  0  0  0
   21.1700    4.5300   52.6300 H   0  0  0  0  0  0  0  0  0  0  0  0
   22.5400    5.1800   53.5900 H   0  0  0  0  0  0  0  0  0  0  0  0
   23.0100    3.1100   52.2500 H   0  0  0  0  0  0  0  0  0  0  0  0
   19.9800    2.8200   50.6400 H   0  0  0  0  0  0  0  0  0  0  0  0
   17.8100    2.5400   49.6300 H   0  0  0  0  0  0  0  0  0  0  0  0
   17.7200   -1.6000   50.4300 H   0  0  0  0  0  0  0  0  0  0  0  0
   20.0500   -1.5100   51.2800 H   0  0  0  0  0  0  0  0  0  0  0  0
   16.1400    0.7900   48.4400 H   0  0  0  0  0  0  0  0  0  0  0  0
   15.5700    0.9400   50.1200 H   0  0  0  0  0  0  0  0  0  0  0  0
   15.7400   -0.6300   49.3900 H   0  0  0  0  0  0  0  0  0  0  0  0
  1  2  1  0  0  0  0
  2  3  4  0  0  0  0
  3  5  1  0  0  0  0
  5  6  1  0  0  0  0
  6  7  4  0  0  0  0
  7  8  4  0  0  0  0
  8  9  4  0  0  0  0
  9 10  4  0  0  0  0
  6 11  4  0  0  0  0
 10 11  4  0  0  0  0
  4 12  1  0  0  0  0
  3 14  1  0  0  0  0
 12 14  1  0  0  0  0
 13 14  2  0  0  0  0
  4 15  1  0  0  0  0
  1 17  2  0  0  0  0
 16 18  1  0  0  0  0
 18 19  1  0  0  0  0
 19 20  1  0  0  0  0
  1 21  1  0  0  0  0
 20 21  1  0  0  0  0
 16 22  1  0  0  0  0
 21 22  1  0  0  0  0
 22 23  1  0  0  0  0
 23 24  1  0  0  0  0
 24 25  4  0  0  0  0
 25 26  4  0  0  0  0
 26 27  4  0  0  0  0
 27 28  4  0  0  0  0
 24 29  4  0  0  0  0
 28 29  4  0  0  0  0
 23 30  2  0  0  0  0
 23 31  2  0  0  0  0
 27 32  1  0  0  0  0
  2 33  1  0  0  0  0
  4 34  1  0  0  0  0
  4 35  1  0  0  0  0
  5 36  1  0  0  0  0
  5 37  1  0  0  0  0
  7 38  1  0  0  0  0
  8 39  1  0  0  0  0
  9 40  1  0  0  0  0
 10 41  1  0  0  0  0
 11 42  1  0  0  0  0
 15 43  1  0  0  0  0
 15 44  1  0  0  0  0
 15 45  1  0  0  0  0
 16 46  1  0  0  0  0
 16 47  1  0  0  0  0
 18 48  1  0  0  0  0
 18 49  1  0  0  0  0
 20 50  1  0  0  0  0
 20 51  1  0  0  0  0
 21 52  1  0  0  0  0
 25 53  1  0  0  0  0
 26 54  1  0  0  0  0
 28 55  1  0  0  0  0
 29 56  1  0  0  0  0
 32 57  1  0  0  0  0
 32 58  1  0  0  0  0
 32 59  1  0  0  0  0
M  CHG  1   1   1
M  END
