 xtb: 6.7.1 (edcfbbe)
          01052609063D

 59 61  0     0  0            999 V2000
   23.7100   14.8000   46.3500 C   0  0  0  0  0  0  0  0  0  0  0  0
   23.7000   15.7400   47.3700 N   0  0  0  0  0  0  0  0  0  0  0  0
   24.5400   15.9600   48.4700 C   0  0  0  0  0  0  0  0  0  0  0  0
   24.3700   18.0700   51.4800 C   0  0  0  0  0  0  0  0  0  0  0  0
   25.9700   15.4700   48.5600 C   0  0  0  0  0  0  0  0  0  0  0  0
   26.8700   16.4700   47.8700 C   0  0  0  0  0  0  0  0  0  0  0  0
   26.9300   16.4600   46.4800 C   0  0  0  0  0  0  0  0  0  0  0  0
   27.6300   17.4600   45.7800 C   0  0  0  0  0  0  0  0  0  0  0  0
   28.3300   18.4000   46.5500 C   0  0  0  0  0  0  0  0  0  0  0  0
   28.2000   18.4700   47.9400 C   0  0  0  0  0  0  0  0  0  0  0  0
   27.4200   17.5200   48.6100 C   0  0  0  0  0  0  0  0  0  0  0  0
   24.7500   16.9500   50.6800 O   0  0  0  0  0  0  0  0  0  0  0  0
   22.8600   17.2300   49.3600 O   0  0  0  0  0  0  0  0  0  0  0  0
   23.9800   16.7900   49.5700 C   0  0  0  0  0  0  0  0  0  0  0  0
   25.4600   18.2500   52.5500 C   0  0  0  0  0  0  0  0  0  0  0  0
   21.2100   13.1500   46.5400 C   0  0  0  0  0  0  0  0  0  0  0  0
   24.5300   13.9000   46.2600 O   0  0  0  0  0  0  0  0  0  0  0  0
   20.2600   14.2500   47.0600 C   0  0  0  0  0  0  0  0  0  0  0  0
   20.7300   16.0300   47.0500 S   0  0  0  0  0  0  0  0  0  0  0  0
   21.6500   16.0100   45.4600 C   0  0  0  0  0  0  0  0  0  0  0  0
   22.5900   14.8000   45.3100 C   0  0  0  0  0  0  0  0  0  0  0  0
   21.8400   13.5400   45.2700 N   0  0  0  0  0  0  0  0  0  0  0  0
   22.6100   12.2400   44.4800 S   0  0  0  0  0  0  0  0  0  0  0  0
   21.1200   11.4300   43.9100 C   0  0  0  0  0  0  0  0  0  0  0  0
   20.3700   11.9700   42.8500 C   0  0  0  0  0  0  0  0  0  0  0  0
   19.1500   11.4000   42.4800 C   0  0  0  0  0  0  0  0  0  0  0  0
   18.6600   10.2600   43.1400 C   0  0  0  0  0  0  0  0  0  0  0  0
   19.4600    9.7000   44.1300 C   0  0  0  0  0  0  0  0  0  0  0  0
   20.6800   10.2600   44.5300 C   0  0  0  0  0  0  0  0  0  0  0  0
   23.2900   11.4700   45.5200 O   0  0  0  0  0  0  0  0  0  0  0  0
   23.2900   12.7800   43.2900 O   0  0  0  0  0  0  0  0  0  0  0  0
   17.3100    9.6600   42.8300 C   0  0  0  0  0  0  0  0  0  0  0  0
   22.8600   16.3000   47.4600 H   0  0  0  0  0  0  0  0  0  0  0  0
   24.4300   18.9600   50.8500 H   0  0  0  0  0  0  0  0  0  0  0  0
   23.4300   17.9300   52.0200 H   0  0  0  0  0  0  0  0  0  0  0  0
   26.2200   15.3200   49.6200 H   0  0  0  0  0  0  0  0  0  0  0  0
   26.0400   14.4400   48.1700 H   0  0  0  0  0  0  0  0  0  0  0  0
   26.3400   15.7000   45.9700 H   0  0  0  0  0  0  0  0  0  0  0  0
   27.6800   17.4500   44.7000 H   0  0  0  0  0  0  0  0  0  0  0  0
   28.9600   19.1700   46.1200 H   0  0  0  0  0  0  0  0  0  0  0  0
   28.5800   19.2400   48.6000 H   0  0  0  0  0  0  0  0  0  0  0  0
   27.2300   17.6000   49.6700 H   0  0  0  0  0  0  0  0  0  0  0  0
   25.1000   19.0300   53.2200 H   0  0  0  0  0  0  0  0  0  0  0  0
   26.4100   18.5900   52.1200 H   0  0  0  0  0  0  0  0  0  0  0  0
   25.6500   17.3300   53.1200 H   0  0  0  0  0  0  0  0  0  0  0  0
   21.9300   12.9100   47.3300 H   0  0  0  0  0  0  0  0  0  0  0  0
   20.6300   12.2200   46.4900 H   0  0  0  0  0  0  0  0  0  0  0  0
   19.4500   14.2000   46.3300 H   0  0  0  0  0  0  0  0  0  0  0  0
   19.7900   13.9600   48.0100 H   0  0  0  0  0  0  0  0  0  0  0  0
   20.9300   15.9000   44.6400 H   0  0  0  0  0  0  0  0  0  0  0  0
   22.2400   16.9400   45.4100 H   0  0  0  0  0  0  0  0  0  0  0  0
   23.2800   14.8700   44.4600 H   0  0  0  0  0  0  0  0  0  0  0  0
   20.6900   12.9400   42.5100 H   0  0  0  0  0  0  0  0  0  0  0  0
   18.4900   11.8600   41.7500 H   0  0  0  0  0  0  0  0  0  0  0  0
   19.2900    8.7500   44.6300 H   0  0  0  0  0  0  0  0  0  0  0  0
   21.2700    9.7900   45.3200 H   0  0  0  0  0  0  0  0  0  0  0  0
   16.9500    9.8400   41.8100 H   0  0  0  0  0  0  0  0  0  0  0  0
   16.5300   10.0300   43.5000 H   0  0  0  0  0  0  0  0  0  0  0  0
   17.2300    8.5800   43.0100 H   0  0  0  0  0  0  0  0  0  0  0  0
  1  2  1  0  0  0  0
  2  3  4  0  0  0  0
  3  5  1  0  0  0  0
  5  6  1  0  0  0  0
  6  7  4  0  0  0  0
  7  8  4  0  0  0  0
  8  9  4  0  0  0  0
  9 10  4  0  0  0  0
  6 11  4  0  0  0  0
 10 11  4  0  0  0  0
  4 12  1  0  0  0  0
  3 14  1  0  0  0  0
 12 14  1  0  0  0  0
 13 14  2  0  0  0  0
  4 15  1  0  0  0  0
  1 17  2  0  0  0  0
 16 18  1  0  0  0  0
 18 19  1  0  0  0  0
 19 20  1  0  0  0  0
  1 21  1  0  0  0  0
 20 21  1  0  0  0  0
 16 22  1  0  0  0  0
 21 22  1  0  0  0  0
 22 23  1  0  0  0  0
 23 24  1  0  0  0  0
 24 25  4  0  0  0  0
 25 26  4  0  0  0  0
 26 27  4  0  0  0  0
 27 28  4  0  0  0  0
 24 29  4  0  0  0  0
 28 29  4  0  0  0  0
 23 30  2  0  0  0  0
 23 31  2  0  0  0  0
 27 32  1  0  0  0  0
  2 33  1  0  0  0  0
  4 34  1  0  0  0  0
  4 35  1  0  0  0  0
  5 36  1  0  0  0  0
  5 37  1  0  0  0  0
  7 38  1  0  0  0  0
  8 39  1  0  0  0  0
  9 40  1  0  0  0  0
 10 41  1  0  0  0  0
 11 42  1  0  0  0  0
 15 43  1  0  0  0  0
 15 44  1  0  0  0  0
 15 45  1  0  0  0  0
 16 46  1  0  0  0  0
 16 47  1  0  0  0  0
 18 48  1  0  0  0  0
 18 49  1  0  0  0  0
 20 50  1  0  0  0  0
 20 51  1  0  0  0  0
 21 52  1  0  0  0  0
 25 53  1  0  0  0  0
 26 54  1  0  0  0  0
 28 55  1  0  0  0  0
 29 56  1  0  0  0  0
 32 57  1  0  0  0  0
 32 58  1  0  0  0  0
 32 59  1  0  0  0  0
M  CHG  1   1   1
M  END
