 xtb: 6.7.1 (edcfbbe)
          01052609063D

173171  0     0  0            999 V2000
   28.7000   16.6100   32.4300 N   0  0  0  0  0  0  0  0  0  0  0  0
   28.3300   17.4400   32.8700 H   0  0  0  0  0  0  0  0  0  0  0  0
   29.9300   16.1200   33.0300 C   0  0  0  0  0  0  0  0  0  0  0  0
   29.9800   15.0400   32.9100 H   0  0  0  0  0  0  0  0  0  0  0  0
   31.1400   16.7800   32.3600 C   0  0  0  0  0  0  0  0  0  0  0  0
   31.1600   16.4400   31.3300 H   0  0  0  0  0  0  0  0  0  0  0  0
   32.0700   16.3500   32.7200 H   0  0  0  0  0  0  0  0  0  0  0  0
   31.2600   18.2800   32.4500 C   0  0  0  0  0  0  0  0  0  0  0  0
   30.6000   19.0700   31.5000 C   0  0  0  0  0  0  0  0  0  0  0  0
   30.0400   18.6400   30.6900 H   0  0  0  0  0  0  0  0  0  0  0  0
   30.7900   20.4600   31.4900 C   0  0  0  0  0  0  0  0  0  0  0  0
   30.2100   21.1000   30.8400 H   0  0  0  0  0  0  0  0  0  0  0  0
   31.5000   21.0700   32.5300 C   0  0  0  0  0  0  0  0  0  0  0  0
   31.3700   22.1300   32.6600 H   0  0  0  0  0  0  0  0  0  0  0  0
   32.1000   20.2900   33.5300 C   0  0  0  0  0  0  0  0  0  0  0  0
   32.5000   20.7600   34.4200 H   0  0  0  0  0  0  0  0  0  0  0  0
   31.9900   18.9000   33.4700 C   0  0  0  0  0  0  0  0  0  0  0  0
   32.4800   18.2800   34.2000 H   0  0  0  0  0  0  0  0  0  0  0  0
   29.9300   16.2700   34.5400 C   0  0  0  0  0  0  0  0  0  0  0  0
   30.4900   15.3900   35.1700 O   0  0  0  0  0  0  0  0  0  0  0  0
   37.7700   34.9500   41.2900 N   0  0  0  0  0  0  0  0  0  0  0  0
   36.8300   35.2900   41.1000 H   0  0  0  0  0  0  0  0  0  0  0  0
   38.2800   34.0900   40.2400 C   0  0  0  0  0  0  0  0  0  0  0  0
   37.4900   34.1000   39.4900 H   0  0  0  0  0  0  0  0  0  0  0  0
   39.5300   34.6600   39.5800 C   0  0  0  0  0  0  0  0  0  0  0  0
   39.9200   34.0400   38.7700 H   0  0  0  0  0  0  0  0  0  0  0  0
   40.3900   34.7500   40.2500 H   0  0  0  0  0  0  0  0  0  0  0  0
   39.3000   36.0100   38.9200 C   0  0  0  0  0  0  0  0  0  0  0  0
   40.3200   36.2800   38.6300 H   0  0  0  0  0  0  0  0  0  0  0  0
   38.9500   36.7500   39.6500 H   0  0  0  0  0  0  0  0  0  0  0  0
   38.5100   36.0200   37.6200 C   0  0  0  0  0  0  0  0  0  0  0  0
   39.0300   35.5800   36.6000 O   0  0  0  0  0  0  0  0  0  0  0  0
   37.3600   36.6900   37.6300 N   0  0  0  0  0  0  0  0  0  0  0  0
   37.1200   37.2400   38.4400 H   0  0  0  0  0  0  0  0  0  0  0  0
   36.8600   36.8800   36.7800 H   0  0  0  0  0  0  0  0  0  0  0  0
   38.3800   32.6000   40.5500 C   0  0  0  0  0  0  0  0  0  0  0  0
   39.0200   31.8700   39.7900 O   0  0  0  0  0  0  0  0  0  0  0  0
   37.8400   32.1200   41.6700 N   0  0  0  0  0  0  0  0  0  0  0  0
   37.3800   32.6300   42.4100 H   0  0  0  0  0  0  0  0  0  0  0  0
   37.8000   30.7000   41.9600 C   0  0  0  0  0  0  0  0  0  0  0  0
   38.8000   30.3300   41.7100 H   0  0  0  0  0  0  0  0  0  0  0  0
   37.6200   30.4200   43.4500 C   0  0  0  0  0  0  0  0  0  0  0  0
   38.3500   30.9600   44.0500 H   0  0  0  0  0  0  0  0  0  0  0  0
   37.7400   29.3400   43.5500 H   0  0  0  0  0  0  0  0  0  0  0  0
   36.2100   30.7900   43.9000 C   0  0  0  0  0  0  0  0  0  0  0  0
   35.5000   30.2900   43.2400 H   0  0  0  0  0  0  0  0  0  0  0  0
   36.1600   31.8800   43.8400 H   0  0  0  0  0  0  0  0  0  0  0  0
   35.7700   30.3600   45.3000 C   0  0  0  0  0  0  0  0  0  0  0  0
   36.6600   29.8400   46.0100 O   0  0  0  0  0  0  0  0  0  0  0  0
   34.5700   30.3400   45.6500 O   0  0  0  0  0  0  0  0  0  0  0  0
   36.9100   29.9400   40.9900 C   0  0  0  0  0  0  0  0  0  0  0  0
   36.6000   28.7700   41.1900 O   0  0  0  0  0  0  0  0  0  0  0  0
   36.3000   30.6200   40.0100 N   0  0  0  0  0  0  0  0  0  0  0  0
   36.5700   31.5800   39.8200 H   0  0  0  0  0  0  0  0  0  0  0  0
   35.4600   30.0500   38.9800 C   0  0  0  0  0  0  0  0  0  0  0  0
   35.8300   29.0300   38.8900 H   0  0  0  0  0  0  0  0  0  0  0  0
   33.9600   30.1100   39.2500 C   0  0  0  0  0  0  0  0  0  0  0  0
   33.5000   29.6500   38.3700 H   0  0  0  0  0  0  0  0  0  0  0  0
   33.5900   29.3300   40.5000 C   0  0  0  0  0  0  0  0  0  0  0  0
   32.5200   29.3300   40.7100 H   0  0  0  0  0  0  0  0  0  0  0  0
   34.0500   28.3500   40.3800 H   0  0  0  0  0  0  0  0  0  0  0  0
   34.0100   29.8500   41.3600 H   0  0  0  0  0  0  0  0  0  0  0  0
   33.4900   31.5600   39.3200 C   0  0  0  0  0  0  0  0  0  0  0  0
   32.4600   31.5800   39.6800 H   0  0  0  0  0  0  0  0  0  0  0  0
   34.1300   32.0300   40.0600 H   0  0  0  0  0  0  0  0  0  0  0  0
   33.5200   32.0700   38.3500 H   0  0  0  0  0  0  0  0  0  0  0  0
   35.8100   30.7200   37.6600 C   0  0  0  0  0  0  0  0  0  0  0  0
   36.5000   31.7400   37.6600 O   0  0  0  0  0  0  0  0  0  0  0  0
   35.4700   30.1200   36.5200 N   0  0  0  0  0  0  0  0  0  0  0  0
   35.0800   29.2000   36.6300 H   0  0  0  0  0  0  0  0  0  0  0  0
   35.7800   30.6500   35.2100 C   0  0  0  0  0  0  0  0  0  0  0  0
   36.8400   30.8800   35.1100 H   0  0  0  0  0  0  0  0  0  0  0  0
   35.3500   29.7000   34.0900 C   0  0  0  0  0  0  0  0  0  0  0  0
   35.5400   30.0000   33.0600 H   0  0  0  0  0  0  0  0  0  0  0  0
   36.2300   28.4600   34.0200 C   0  0  0  0  0  0  0  0  0  0  0  0
   35.9100   27.7900   34.8300 H   0  0  0  0  0  0  0  0  0  0  0  0
   36.1700   27.9000   33.0800 H   0  0  0  0  0  0  0  0  0  0  0  0
   37.2700   28.7500   34.1300 H   0  0  0  0  0  0  0  0  0  0  0  0
   33.8800   29.3000   34.1900 C   0  0  0  0  0  0  0  0  0  0  0  0
   33.2600   30.1800   34.0200 H   0  0  0  0  0  0  0  0  0  0  0  0
   33.7600   28.8300   35.1700 H   0  0  0  0  0  0  0  0  0  0  0  0
   33.3100   28.3900   33.1000 C   0  0  0  0  0  0  0  0  0  0  0  0
   33.6300   28.6000   32.0800 H   0  0  0  0  0  0  0  0  0  0  0  0
   33.6200   27.3700   33.3300 H   0  0  0  0  0  0  0  0  0  0  0  0
   32.2500   28.2000   33.2400 H   0  0  0  0  0  0  0  0  0  0  0  0
   35.0800   31.9700   34.9000 C   0  0  0  0  0  0  0  0  0  0  0  0
   34.0200   32.1800   35.4900 O   0  0  0  0  0  0  0  0  0  0  0  0
   37.5500   27.1100   28.8000 N   0  0  0  0  0  0  0  0  0  0  0  0
   36.8700   26.8100   28.1100 H   0  0  0  0  0  0  0  0  0  0  0  0
   38.8100   26.4000   28.7700 C   0  0  0  0  0  0  0  0  0  0  0  0
   39.4900   26.8600   29.4900 H   0  0  0  0  0  0  0  0  0  0  0  0
   38.6100   24.9700   29.2700 C   0  0  0  0  0  0  0  0  0  0  0  0
   39.6300   24.6100   29.3900 H   0  0  0  0  0  0  0  0  0  0  0  0
   38.0700   24.3700   28.5400 H   0  0  0  0  0  0  0  0  0  0  0  0
   37.9700   24.8700   30.6300 C   0  0  0  0  0  0  0  0  0  0  0  0
   38.4800   25.5400   31.7500 C   0  0  0  0  0  0  0  0  0  0  0  0
   39.4400   26.0400   31.6600 H   0  0  0  0  0  0  0  0  0  0  0  0
   37.8100   25.4600   32.9700 C   0  0  0  0  0  0  0  0  0  0  0  0
   38.2900   26.0600   33.7400 H   0  0  0  0  0  0  0  0  0  0  0  0
   36.5200   24.8800   33.0000 C   0  0  0  0  0  0  0  0  0  0  0  0
   35.8000   24.9200   34.1600 O   0  0  0  0  0  0  0  0  0  0  0  0
   36.3800   25.0700   34.9100 H   0  0  0  0  0  0  0  0  0  0  0  0
   35.9800   24.3100   31.8400 C   0  0  0  0  0  0  0  0  0  0  0  0
   35.0900   23.6900   31.8800 H   0  0  0  0  0  0  0  0  0  0  0  0
   36.7100   24.2600   30.6400 C   0  0  0  0  0  0  0  0  0  0  0  0
   36.2800   23.8500   29.7500 H   0  0  0  0  0  0  0  0  0  0  0  0
   39.5500   26.5500   27.4500 C   0  0  0  0  0  0  0  0  0  0  0  0
   40.5700   25.8800   27.3000 O   0  0  0  0  0  0  0  0  0  0  0  0
   39.3900   19.7200   28.2600 N   0  0  0  0  0  0  0  0  0  0  0  0
   38.7900   19.3200   27.5500 H   0  0  0  0  0  0  0  0  0  0  0  0
   39.6300   18.8100   29.3600 C   0  0  0  0  0  0  0  0  0  0  0  0
   40.6300   18.9300   29.7800 H   0  0  0  0  0  0  0  0  0  0  0  0
   38.7100   19.0100   30.5600 C   0  0  0  0  0  0  0  0  0  0  0  0
   37.6700   18.7000   30.4700 H   0  0  0  0  0  0  0  0  0  0  0  0
   38.7500   20.0700   30.8000 H   0  0  0  0  0  0  0  0  0  0  0  0
   39.3300   18.3000   31.7300 C   0  0  0  0  0  0  0  0  0  0  0  0
   40.3500   18.7800   32.5500 N   0  0  0  0  0  0  0  0  0  0  0  0
   40.5500   17.8100   33.4400 C   0  0  0  0  0  0  0  0  0  0  0  0
   41.2900   18.0200   34.2100 H   0  0  0  0  0  0  0  0  0  0  0  0
   39.6900   16.7900   33.3200 N   0  0  0  0  0  0  0  0  0  0  0  0
   39.5300   16.0400   33.9700 H   0  0  0  0  0  0  0  0  0  0  0  0
   38.9500   17.0600   32.1800 C   0  0  0  0  0  0  0  0  0  0  0  0
   38.1400   16.4000   31.9100 H   0  0  0  0  0  0  0  0  0  0  0  0
   39.6500   17.3700   28.8800 C   0  0  0  0  0  0  0  0  0  0  0  0
   38.6700   16.9800   28.2500 O   0  0  0  0  0  0  0  0  0  0  0  0
   36.5000   14.4400   27.9600 N   0  0  0  0  0  0  0  0  0  0  0  0
   37.2500   15.0700   27.7200 H   0  0  0  0  0  0  0  0  0  0  0  0
   35.1400   14.9400   28.1300 C   0  0  0  0  0  0  0  0  0  0  0  0
   34.4900   14.2100   27.6400 H   0  0  0  0  0  0  0  0  0  0  0  0
   34.8400   15.0500   29.6200 C   0  0  0  0  0  0  0  0  0  0  0  0
   34.9200   14.0400   30.0300 H   0  0  0  0  0  0  0  0  0  0  0  0
   35.8900   15.9100   30.3300 C   0  0  0  0  0  0  0  0  0  0  0  0
   35.7900   15.5700   31.3600 H   0  0  0  0  0  0  0  0  0  0  0  0
   36.9000   15.6800   29.9900 H   0  0  0  0  0  0  0  0  0  0  0  0
   35.5800   16.9500   30.3100 H   0  0  0  0  0  0  0  0  0  0  0  0
   33.4300   15.4200   30.0800 C   0  0  0  0  0  0  0  0  0  0  0  0
   33.1400   16.3700   29.6300 H   0  0  0  0  0  0  0  0  0  0  0  0
   33.5600   15.6400   31.1400 H   0  0  0  0  0  0  0  0  0  0  0  0
   32.3300   14.4100   29.8200 C   0  0  0  0  0  0  0  0  0  0  0  0
   32.5700   13.9700   28.8500 H   0  0  0  0  0  0  0  0  0  0  0  0
   32.2100   13.6500   30.5900 H   0  0  0  0  0  0  0  0  0  0  0  0
   31.3600   14.9100   29.9100 H   0  0  0  0  0  0  0  0  0  0  0  0
   34.8100   16.2500   27.4400 C   0  0  0  0  0  0  0  0  0  0  0  0
   33.6900   16.3800   26.9400 O   0  0  0  0  0  0  0  0  0  0  0  0
   35.7200   17.2300   27.4800 N   0  0  0  0  0  0  0  0  0  0  0  0
   36.5400   17.0100   28.0200 H   0  0  0  0  0  0  0  0  0  0  0  0
   35.5700   18.5600   26.9200 C   0  0  0  0  0  0  0  0  0  0  0  0
   34.5400   18.5900   26.5600 H   0  0  0  0  0  0  0  0  0  0  0  0
   35.8600   19.6900   27.8900 C   0  0  0  0  0  0  0  0  0  0  0  0
   36.8200   19.5100   28.3800 H   0  0  0  0  0  0  0  0  0  0  0  0
   35.8200   21.1000   27.3000 C   0  0  0  0  0  0  0  0  0  0  0  0
   36.0900   21.8200   28.0700 H   0  0  0  0  0  0  0  0  0  0  0  0
   36.6300   21.0800   26.5700 H   0  0  0  0  0  0  0  0  0  0  0  0
   34.8900   21.3300   26.7800 H   0  0  0  0  0  0  0  0  0  0  0  0
   34.8300   19.7500   29.0200 C   0  0  0  0  0  0  0  0  0  0  0  0
   34.5700   18.7000   29.1800 H   0  0  0  0  0  0  0  0  0  0  0  0
   34.0400   20.3600   28.5900 H   0  0  0  0  0  0  0  0  0  0  0  0
   35.2800   20.3000   30.3700 C   0  0  0  0  0  0  0  0  0  0  0  0
   36.1900   20.8800   30.1600 H   0  0  0  0  0  0  0  0  0  0  0  0
   34.5400   21.0100   30.7400 H   0  0  0  0  0  0  0  0  0  0  0  0
   35.4600   19.4400   31.0000 H   0  0  0  0  0  0  0  0  0  0  0  0
   36.4500   18.7300   25.6900 C   0  0  0  0  0  0  0  0  0  0  0  0
   37.6500   18.5900   25.9100 O   0  0  0  0  0  0  0  0  0  0  0  0
   28.1420   16.0740   31.7810 H   0  0  0  0  0  0  0  0  0  0  0  0
   29.2160   16.9590   35.0160 H   0  0  0  0  0  0  0  0  0  0  0  0
   38.1860   35.1460   42.1890 H   0  0  0  0  0  0  0  0  0  0  0  0
   35.4340   32.5380   34.0270 H   0  0  0  0  0  0  0  0  0  0  0  0
   37.3010   27.8800   29.4040 H   0  0  0  0  0  0  0  0  0  0  0  0
   39.1040   27.2360   26.7150 H   0  0  0  0  0  0  0  0  0  0  0  0
   39.7690   20.6510   28.1620 H   0  0  0  0  0  0  0  0  0  0  0  0
   40.4870   16.6730   29.0360 H   0  0  0  0  0  0  0  0  0  0  0  0
   36.6670   13.4440   27.9680 H   0  0  0  0  0  0  0  0  0  0  0  0
   36.0550   18.8950   24.6770 H   0  0  0  0  0  0  0  0  0  0  0  0
  1  2  1  0  0  0  0
  1  3  1  0  0  0  0
  3  4  1  0  0  0  0
  3  5  1  0  0  0  0
  5  6  1  0  0  0  0
  5  7  1  0  0  0  0
  5  8  1  0  0  0  0
  8  9  4  0  0  0  0
  9 10  1  0  0  0  0
  9 11  4  0  0  0  0
 11 12  1  0  0  0  0
 11 13  4  0  0  0  0
 13 14  1  0  0  0  0
 13 15  4  0  0  0  0
 15 16  1  0  0  0  0
  8 17  4  0  0  0  0
 15 17  4  0  0  0  0
 17 18  1  0  0  0  0
  3 19  1  0  0  0  0
 19 20  2  0  0  0  0
 21 22  1  0  0  0  0
 21 23  1  0  0  0  0
 23 24  1  0  0  0  0
 23 25  1  0  0  0  0
 25 26  1  0  0  0  0
 25 27  1  0  0  0  0
 25 28  1  0  0  0  0
 28 29  1  0  0  0  0
 28 30  1  0  0  0  0
 28 31  1  0  0  0  0
 31 32  2  0  0  0  0
 31 33  4  0  0  0  0
 33 34  1  0  0  0  0
 33 35  1  0  0  0  0
 23 36  1  0  0  0  0
 36 37  2  0  0  0  0
 36 38  4  0  0  0  0
 38 39  1  0  0  0  0
 38 40  1  0  0  0  0
 40 41  1  0  0  0  0
 40 42  1  0  0  0  0
 42 43  1  0  0  0  0
 42 44  1  0  0  0  0
 42 45  1  0  0  0  0
 45 46  1  0  0  0  0
 45 47  1  0  0  0  0
 45 48  1  0  0  0  0
 48 49  4  0  0  0  0
 48 50  4  0  0  0  0
 40 51  1  0  0  0  0
 51 52  2  0  0  0  0
 51 53  4  0  0  0  0
 53 54  1  0  0  0  0
 53 55  1  0  0  0  0
 55 56  1  0  0  0  0
 55 57  1  0  0  0  0
 57 58  1  0  0  0  0
 57 59  1  0  0  0  0
 59 60  1  0  0  0  0
 59 61  1  0  0  0  0
 59 62  1  0  0  0  0
 57 63  1  0  0  0  0
 63 64  1  0  0  0  0
 63 65  1  0  0  0  0
 63 66  1  0  0  0  0
 55 67  1  0  0  0  0
 67 68  2  0  0  0  0
 67 69  4  0  0  0  0
 69 70  1  0  0  0  0
 69 71  1  0  0  0  0
 71 72  1  0  0  0  0
 71 73  1  0  0  0  0
 73 74  1  0  0  0  0
 73 75  1  0  0  0  0
 75 76  1  0  0  0  0
 75 77  1  0  0  0  0
 75 78  1  0  0  0  0
 73 79  1  0  0  0  0
 79 80  1  0  0  0  0
 79 81  1  0  0  0  0
 79 82  1  0  0  0  0
 82 83  1  0  0  0  0
 82 84  1  0  0  0  0
 82 85  1  0  0  0  0
 71 86  1  0  0  0  0
 86 87  2  0  0  0  0
 88 89  1  0  0  0  0
 88 90  1  0  0  0  0
 90 91  1  0  0  0  0
 90 92  1  0  0  0  0
 92 93  1  0  0  0  0
 92 94  1  0  0  0  0
 92 95  1  0  0  0  0
 95 96  4  0  0  0  0
 96 97  1  0  0  0  0
 96 98  4  0  0  0  0
 98 99  1  0  0  0  0
 98100  4  0  0  0  0
100101  1  0  0  0  0
101102  1  0  0  0  0
100103  4  0  0  0  0
103104  1  0  0  0  0
 95105  4  0  0  0  0
103105  4  0  0  0  0
105106  1  0  0  0  0
 90107  1  0  0  0  0
107108  2  0  0  0  0
109110  1  0  0  0  0
109111  1  0  0  0  0
111112  1  0  0  0  0
111113  1  0  0  0  0
113114  1  0  0  0  0
113115  1  0  0  0  0
113116  1  0  0  0  0
116117  4  0  0  0  0
117118  2  0  0  0  0
118119  1  0  0  0  0
118120  4  0  0  0  0
120121  1  0  0  0  0
116122  2  0  0  0  0
120122  1  0  0  0  0
122123  1  0  0  0  0
111124  1  0  0  0  0
124125  2  0  0  0  0
126127  1  0  0  0  0
126128  1  0  0  0  0
128129  1  0  0  0  0
128130  1  0  0  0  0
130131  1  0  0  0  0
130132  1  0  0  0  0
132133  1  0  0  0  0
132134  1  0  0  0  0
132135  1  0  0  0  0
130136  1  0  0  0  0
136137  1  0  0  0  0
136138  1  0  0  0  0
136139  1  0  0  0  0
139140  1  0  0  0  0
139141  1  0  0  0  0
139142  1  0  0  0  0
128143  1  0  0  0  0
143144  2  0  0  0  0
143145  4  0  0  0  0
145146  1  0  0  0  0
145147  1  0  0  0  0
147148  1  0  0  0  0
147149  1  0  0  0  0
149150  1  0  0  0  0
149151  1  0  0  0  0
151152  1  0  0  0  0
151153  1  0  0  0  0
151154  1  0  0  0  0
149155  1  0  0  0  0
155156  1  0  0  0  0
155157  1  0  0  0  0
155158  1  0  0  0  0
158159  1  0  0  0  0
158160  1  0  0  0  0
158161  1  0  0  0  0
147162  1  0  0  0  0
162163  2  0  0  0  0
  1164  1  0  0  0  0
 19165  1  0  0  0  0
 21166  1  0  0  0  0
 86167  1  0  0  0  0
 88168  1  0  0  0  0
107169  1  0  0  0  0
109170  1  0  0  0  0
124171  1  0  0  0  0
126172  1  0  0  0  0
162173  1  0  0  0  0
M  CHG  1   1  -1
M  END
