 xtb: 6.7.1 (edcfbbe)
          01052609073D

150148  0     0  0            999 V2000
   15.0400    3.1800   42.8700 N   0  0  0  0  0  0  0  0  0  0  0  0
   14.8900    4.0900   43.2900 H   0  0  0  0  0  0  0  0  0  0  0  0
   15.4700    2.1800   43.8300 C   0  0  0  0  0  0  0  0  0  0  0  0
   15.0400    1.2200   43.5400 H   0  0  0  0  0  0  0  0  0  0  0  0
   16.9900    2.0400   43.8500 C   0  0  0  0  0  0  0  0  0  0  0  0
   17.2600    2.1200   42.7900 H   0  0  0  0  0  0  0  0  0  0  0  0
   17.3600    1.0400   44.0700 H   0  0  0  0  0  0  0  0  0  0  0  0
   17.7200    3.0700   44.6800 C   0  0  0  0  0  0  0  0  0  0  0  0
   18.0200    4.3300   44.1400 C   0  0  0  0  0  0  0  0  0  0  0  0
   17.5600    4.5500   43.1900 H   0  0  0  0  0  0  0  0  0  0  0  0
   18.7300    5.2400   44.9400 C   0  0  0  0  0  0  0  0  0  0  0  0
   19.1500    6.1500   44.5500 H   0  0  0  0  0  0  0  0  0  0  0  0
   19.1100    4.8700   46.2400 C   0  0  0  0  0  0  0  0  0  0  0  0
   19.6200    5.5800   46.8700 H   0  0  0  0  0  0  0  0  0  0  0  0
   18.7500    3.6300   46.7700 C   0  0  0  0  0  0  0  0  0  0  0  0
   19.1300    3.3100   47.7300 H   0  0  0  0  0  0  0  0  0  0  0  0
   18.0600    2.7000   45.9800 C   0  0  0  0  0  0  0  0  0  0  0  0
   17.8600    1.6900   46.3100 H   0  0  0  0  0  0  0  0  0  0  0  0
   15.0300    2.3500   45.2700 C   0  0  0  0  0  0  0  0  0  0  0  0
   15.0600    1.3600   46.0100 O   0  0  0  0  0  0  0  0  0  0  0  0
   14.5700    3.5400   45.6700 N   0  0  0  0  0  0  0  0  0  0  0  0
   14.7200    4.3100   45.0300 H   0  0  0  0  0  0  0  0  0  0  0  0
   14.1100    3.8300   47.0100 C   0  0  0  0  0  0  0  0  0  0  0  0
   13.5900    2.9400   47.3600 H   0  0  0  0  0  0  0  0  0  0  0  0
   15.3000    3.9900   47.9400 C   0  0  0  0  0  0  0  0  0  0  0  0
   15.8000    4.8900   47.5600 H   0  0  0  0  0  0  0  0  0  0  0  0
   15.9800    3.1400   47.9300 H   0  0  0  0  0  0  0  0  0  0  0  0
   14.9200    4.1300   49.4100 C   0  0  0  0  0  0  0  0  0  0  0  0
   13.8900    3.6400   49.9200 O   0  0  0  0  0  0  0  0  0  0  0  0
   15.6200    4.7700   50.2200 O   0  0  0  0  0  0  0  0  0  0  0  0
   13.2100    5.0600   47.0100 C   0  0  0  0  0  0  0  0  0  0  0  0
   13.4600    6.1300   46.4500 O   0  0  0  0  0  0  0  0  0  0  0  0
   27.3600   13.5100   58.5500 N   0  0  0  0  0  0  0  0  0  0  0  0
   27.1000   14.4400   58.2400 H   0  0  0  0  0  0  0  0  0  0  0  0
   27.7800   12.6100   57.5000 C   0  0  0  0  0  0  0  0  0  0  0  0
   27.2300   13.0600   56.6600 H   0  0  0  0  0  0  0  0  0  0  0  0
   29.2200   12.7700   57.0300 C   0  0  0  0  0  0  0  0  0  0  0  0
   29.2800   13.7700   56.6000 H   0  0  0  0  0  0  0  0  0  0  0  0
   29.5100   12.0600   56.2600 H   0  0  0  0  0  0  0  0  0  0  0  0
   30.1100   12.7100   58.2700 C   0  0  0  0  0  0  0  0  0  0  0  0
   29.9600   11.9500   59.0400 H   0  0  0  0  0  0  0  0  0  0  0  0
   30.0100   13.6500   58.8100 H   0  0  0  0  0  0  0  0  0  0  0  0
   31.5800   12.5100   57.9000 C   0  0  0  0  0  0  0  0  0  0  0  0
   31.9500   11.7000   57.0600 O   0  0  0  0  0  0  0  0  0  0  0  0
   32.4900   13.2500   58.5300 N   0  0  0  0  0  0  0  0  0  0  0  0
   32.2200   13.9700   59.1900 H   0  0  0  0  0  0  0  0  0  0  0  0
   33.4400   13.2300   58.1800 H   0  0  0  0  0  0  0  0  0  0  0  0
   27.2700   11.1900   57.6900 C   0  0  0  0  0  0  0  0  0  0  0  0
   27.9800   10.2000   57.4900 O   0  0  0  0  0  0  0  0  0  0  0  0
   25.9400   11.0800   57.8000 N   0  0  0  0  0  0  0  0  0  0  0  0
   25.4400   11.9500   57.9200 H   0  0  0  0  0  0  0  0  0  0  0  0
   25.1900    9.8400   57.7400 C   0  0  0  0  0  0  0  0  0  0  0  0
   25.8200    9.0400   58.1200 H   0  0  0  0  0  0  0  0  0  0  0  0
   24.1300   10.0600   58.8100 C   0  0  0  0  0  0  0  0  0  0  0  0
   23.4100    9.2400   58.7100 H   0  0  0  0  0  0  0  0  0  0  0  0
   23.6600   11.0300   58.6700 H   0  0  0  0  0  0  0  0  0  0  0  0
   24.6400    9.9900   60.2400 C   0  0  0  0  0  0  0  0  0  0  0  0
   25.0500   10.9300   60.6100 H   0  0  0  0  0  0  0  0  0  0  0  0
   25.5000    9.3100   60.2100 H   0  0  0  0  0  0  0  0  0  0  0  0
   23.5900    9.5200   61.2400 C   0  0  0  0  0  0  0  0  0  0  0  0
   23.9500    9.2200   62.4000 O   0  0  0  0  0  0  0  0  0  0  0  0
   22.3800    9.4100   60.9700 O   0  0  0  0  0  0  0  0  0  0  0  0
   24.4900    9.5100   56.4300 C   0  0  0  0  0  0  0  0  0  0  0  0
   24.6000    8.3400   56.0500 O   0  0  0  0  0  0  0  0  0  0  0  0
   27.9100    6.6900   46.4700 N   0  0  0  0  0  0  0  0  0  0  0  0
   27.0900    6.6700   45.8700 H   0  0  0  0  0  0  0  0  0  0  0  0
   28.4700    5.3900   46.7900 C   0  0  0  0  0  0  0  0  0  0  0  0
   28.9600    5.4900   47.7600 H   0  0  0  0  0  0  0  0  0  0  0  0
   27.3700    4.3600   47.0100 C   0  0  0  0  0  0  0  0  0  0  0  0
   27.9600    3.6100   47.5300 H   0  0  0  0  0  0  0  0  0  0  0  0
   26.9300    4.0200   46.0700 H   0  0  0  0  0  0  0  0  0  0  0  0
   26.2700    4.8000   47.9400 C   0  0  0  0  0  0  0  0  0  0  0  0
   26.3600    4.6100   49.3200 C   0  0  0  0  0  0  0  0  0  0  0  0
   27.1900    4.1100   49.8100 H   0  0  0  0  0  0  0  0  0  0  0  0
   25.3100    4.9300   50.1800 C   0  0  0  0  0  0  0  0  0  0  0  0
   25.4100    4.7000   51.2300 H   0  0  0  0  0  0  0  0  0  0  0  0
   24.1200    5.4400   49.6300 C   0  0  0  0  0  0  0  0  0  0  0  0
   23.1100    5.7400   50.5000 O   0  0  0  0  0  0  0  0  0  0  0  0
   22.2300    5.7800   50.1100 H   0  0  0  0  0  0  0  0  0  0  0  0
   24.0300    5.6600   48.2400 C   0  0  0  0  0  0  0  0  0  0  0  0
   23.1300    6.1400   47.8800 H   0  0  0  0  0  0  0  0  0  0  0  0
   25.1100    5.3800   47.4000 C   0  0  0  0  0  0  0  0  0  0  0  0
   25.1000    5.6900   46.3600 H   0  0  0  0  0  0  0  0  0  0  0  0
   29.5300    4.8600   45.8400 C   0  0  0  0  0  0  0  0  0  0  0  0
   30.1100    3.8200   46.1600 O   0  0  0  0  0  0  0  0  0  0  0  0
   25.9900   -1.0900   46.9000 N   0  0  0  0  0  0  0  0  0  0  0  0
   25.5200   -0.9800   46.0100 H   0  0  0  0  0  0  0  0  0  0  0  0
   25.4600   -2.1200   47.7800 C   0  0  0  0  0  0  0  0  0  0  0  0
   26.3000   -2.6300   48.2400 H   0  0  0  0  0  0  0  0  0  0  0  0
   24.5800   -1.5000   48.8700 C   0  0  0  0  0  0  0  0  0  0  0  0
   23.6800   -1.1200   48.3800 H   0  0  0  0  0  0  0  0  0  0  0  0
   24.9800   -0.5600   49.2500 H   0  0  0  0  0  0  0  0  0  0  0  0
   24.1100   -2.4700   49.9200 C   0  0  0  0  0  0  0  0  0  0  0  0
   22.9900   -3.2800   49.7200 N   0  0  0  0  0  0  0  0  0  0  0  0
   22.9500   -4.0900   50.7800 C   0  0  0  0  0  0  0  0  0  0  0  0
   22.1900   -4.8500   50.9200 H   0  0  0  0  0  0  0  0  0  0  0  0
   24.0400   -3.8900   51.5500 N   0  0  0  0  0  0  0  0  0  0  0  0
   24.3500   -4.5100   52.2800 H   0  0  0  0  0  0  0  0  0  0  0  0
   24.7700   -2.8200   51.0700 C   0  0  0  0  0  0  0  0  0  0  0  0
   25.6400   -2.4000   51.5500 H   0  0  0  0  0  0  0  0  0  0  0  0
   24.7400   -3.1900   46.9700 C   0  0  0  0  0  0  0  0  0  0  0  0
   23.9600   -2.8200   46.0900 O   0  0  0  0  0  0  0  0  0  0  0  0
   20.8700   -3.6700   45.0100 N   0  0  0  0  0  0  0  0  0  0  0  0
   21.8600   -3.6800   45.2200 H   0  0  0  0  0  0  0  0  0  0  0  0
   20.0800   -2.4800   45.2600 C   0  0  0  0  0  0  0  0  0  0  0  0
   19.2100   -2.4700   44.6100 H   0  0  0  0  0  0  0  0  0  0  0  0
   19.5700   -2.6200   46.6900 C   0  0  0  0  0  0  0  0  0  0  0  0
   19.0400   -3.5700   46.8000 H   0  0  0  0  0  0  0  0  0  0  0  0
   20.5900   -2.6300   47.8300 C   0  0  0  0  0  0  0  0  0  0  0  0
   21.4200   -3.3300   47.7600 H   0  0  0  0  0  0  0  0  0  0  0  0
   21.0500   -1.6400   47.8400 H   0  0  0  0  0  0  0  0  0  0  0  0
   20.1100   -2.7600   48.8000 H   0  0  0  0  0  0  0  0  0  0  0  0
   18.4400   -1.6600   47.0700 C   0  0  0  0  0  0  0  0  0  0  0  0
   18.8500   -0.6500   47.0400 H   0  0  0  0  0  0  0  0  0  0  0  0
   18.1000   -1.9200   48.0700 H   0  0  0  0  0  0  0  0  0  0  0  0
   17.2600   -1.5200   46.1200 C   0  0  0  0  0  0  0  0  0  0  0  0
   16.4200   -1.0000   46.5800 H   0  0  0  0  0  0  0  0  0  0  0  0
   17.5500   -0.9700   45.2200 H   0  0  0  0  0  0  0  0  0  0  0  0
   16.8000   -2.4800   45.8800 H   0  0  0  0  0  0  0  0  0  0  0  0
   20.7500   -1.1500   44.9500 C   0  0  0  0  0  0  0  0  0  0  0  0
   19.9900   -0.2900   44.4900 O   0  0  0  0  0  0  0  0  0  0  0  0
   22.0700   -0.9700   44.9300 N   0  0  0  0  0  0  0  0  0  0  0  0
   22.7100   -1.7400   45.0400 H   0  0  0  0  0  0  0  0  0  0  0  0
   22.6100    0.3200   44.5600 C   0  0  0  0  0  0  0  0  0  0  0  0
   21.9100    0.9100   43.9700 H   0  0  0  0  0  0  0  0  0  0  0  0
   22.9900    1.2000   45.7400 C   0  0  0  0  0  0  0  0  0  0  0  0
   23.6700    0.6600   46.4100 H   0  0  0  0  0  0  0  0  0  0  0  0
   23.7200    2.4500   45.2600 C   0  0  0  0  0  0  0  0  0  0  0  0
   23.1900    2.9400   44.4400 H   0  0  0  0  0  0  0  0  0  0  0  0
   23.8000    3.1100   46.1300 H   0  0  0  0  0  0  0  0  0  0  0  0
   24.7100    2.2200   44.8800 H   0  0  0  0  0  0  0  0  0  0  0  0
   21.8100    1.5800   46.6400 C   0  0  0  0  0  0  0  0  0  0  0  0
   21.1100    0.7500   46.7300 H   0  0  0  0  0  0  0  0  0  0  0  0
   21.2500    2.4300   46.2600 H   0  0  0  0  0  0  0  0  0  0  0  0
   22.1700    1.9700   48.0700 C   0  0  0  0  0  0  0  0  0  0  0  0
   21.2400    1.7500   48.5900 H   0  0  0  0  0  0  0  0  0  0  0  0
   22.9500    1.3500   48.5200 H   0  0  0  0  0  0  0  0  0  0  0  0
   22.3400    3.0500   48.1300 H   0  0  0  0  0  0  0  0  0  0  0  0
   23.7600    0.0300   43.6000 C   0  0  0  0  0  0  0  0  0  0  0  0
   24.7500   -0.4200   44.1600 O   0  0  0  0  0  0  0  0  0  0  0  0
   14.8430    2.9900   41.8980 H   0  0  0  0  0  0  0  0  0  0  0  0
   12.2650    5.0520   47.5730 H   0  0  0  0  0  0  0  0  0  0  0  0
   27.3900   13.3820   59.5510 H   0  0  0  0  0  0  0  0  0  0  0  0
   24.1920   10.3300   55.7590 H   0  0  0  0  0  0  0  0  0  0  0  0
   28.3180    7.5890   46.6820 H   0  0  0  0  0  0  0  0  0  0  0  0
   29.8040    5.3820   44.9110 H   0  0  0  0  0  0  0  0  0  0  0  0
   26.7960   -0.5200   47.1130 H   0  0  0  0  0  0  0  0  0  0  0  0
   24.9220   -4.2580   47.1600 H   0  0  0  0  0  0  0  0  0  0  0  0
   20.4930   -4.5600   44.7160 H   0  0  0  0  0  0  0  0  0  0  0  0
   23.7020    0.1120   42.5050 H   0  0  0  0  0  0  0  0  0  0  0  0
  1  2  1  0  0  0  0
  1  3  1  0  0  0  0
  3  4  1  0  0  0  0
  3  5  1  0  0  0  0
  5  6  1  0  0  0  0
  5  7  1  0  0  0  0
  5  8  1  0  0  0  0
  8  9  4  0  0  0  0
  9 10  1  0  0  0  0
  9 11  4  0  0  0  0
 11 12  1  0  0  0  0
 11 13  4  0  0  0  0
 13 14  1  0  0  0  0
 13 15  4  0  0  0  0
 15 16  1  0  0  0  0
  8 17  4  0  0  0  0
 15 17  4  0  0  0  0
 17 18  1  0  0  0  0
  3 19  1  0  0  0  0
 19 20  2  0  0  0  0
 19 21  4  0  0  0  0
 21 22  1  0  0  0  0
 21 23  1  0  0  0  0
 23 24  1  0  0  0  0
 23 25  1  0  0  0  0
 25 26  1  0  0  0  0
 25 27  1  0  0  0  0
 25 28  1  0  0  0  0
 28 29  4  0  0  0  0
 28 30  4  0  0  0  0
 23 31  1  0  0  0  0
 31 32  2  0  0  0  0
 33 34  1  0  0  0  0
 33 35  1  0  0  0  0
 35 36  1  0  0  0  0
 35 37  1  0  0  0  0
 37 38  1  0  0  0  0
 37 39  1  0  0  0  0
 37 40  1  0  0  0  0
 40 41  1  0  0  0  0
 40 42  1  0  0  0  0
 40 43  1  0  0  0  0
 43 44  2  0  0  0  0
 43 45  4  0  0  0  0
 45 46  1  0  0  0  0
 45 47  1  0  0  0  0
 35 48  1  0  0  0  0
 48 49  2  0  0  0  0
 48 50  4  0  0  0  0
 50 51  1  0  0  0  0
 50 52  1  0  0  0  0
 52 53  1  0  0  0  0
 52 54  1  0  0  0  0
 54 55  1  0  0  0  0
 54 56  1  0  0  0  0
 54 57  1  0  0  0  0
 57 58  1  0  0  0  0
 57 59  1  0  0  0  0
 57 60  1  0  0  0  0
 60 61  4  0  0  0  0
 60 62  4  0  0  0  0
 52 63  1  0  0  0  0
 63 64  2  0  0  0  0
 65 66  1  0  0  0  0
 65 67  1  0  0  0  0
 67 68  1  0  0  0  0
 67 69  1  0  0  0  0
 69 70  1  0  0  0  0
 69 71  1  0  0  0  0
 69 72  1  0  0  0  0
 72 73  4  0  0  0  0
 73 74  1  0  0  0  0
 73 75  4  0  0  0  0
 75 76  1  0  0  0  0
 75 77  4  0  0  0  0
 77 78  1  0  0  0  0
 78 79  1  0  0  0  0
 77 80  4  0  0  0  0
 80 81  1  0  0  0  0
 72 82  4  0  0  0  0
 80 82  4  0  0  0  0
 82 83  1  0  0  0  0
 67 84  1  0  0  0  0
 84 85  2  0  0  0  0
 86 87  1  0  0  0  0
 86 88  1  0  0  0  0
 88 89  1  0  0  0  0
 88 90  1  0  0  0  0
 90 91  1  0  0  0  0
 90 92  1  0  0  0  0
 90 93  1  0  0  0  0
 93 94  4  0  0  0  0
 94 95  2  0  0  0  0
 95 96  1  0  0  0  0
 95 97  4  0  0  0  0
 97 98  1  0  0  0  0
 93 99  2  0  0  0  0
 97 99  1  0  0  0  0
 99100  1  0  0  0  0
 88101  1  0  0  0  0
101102  2  0  0  0  0
103104  1  0  0  0  0
103105  1  0  0  0  0
105106  1  0  0  0  0
105107  1  0  0  0  0
107108  1  0  0  0  0
107109  1  0  0  0  0
109110  1  0  0  0  0
109111  1  0  0  0  0
109112  1  0  0  0  0
107113  1  0  0  0  0
113114  1  0  0  0  0
113115  1  0  0  0  0
113116  1  0  0  0  0
116117  1  0  0  0  0
116118  1  0  0  0  0
116119  1  0  0  0  0
105120  1  0  0  0  0
120121  2  0  0  0  0
120122  4  0  0  0  0
122123  1  0  0  0  0
122124  1  0  0  0  0
124125  1  0  0  0  0
124126  1  0  0  0  0
126127  1  0  0  0  0
126128  1  0  0  0  0
128129  1  0  0  0  0
128130  1  0  0  0  0
128131  1  0  0  0  0
126132  1  0  0  0  0
132133  1  0  0  0  0
132134  1  0  0  0  0
132135  1  0  0  0  0
135136  1  0  0  0  0
135137  1  0  0  0  0
135138  1  0  0  0  0
124139  1  0  0  0  0
139140  2  0  0  0  0
  1141  1  0  0  0  0
 31142  1  0  0  0  0
 33143  1  0  0  0  0
 63144  1  0  0  0  0
 65145  1  0  0  0  0
 84146  1  0  0  0  0
 86147  1  0  0  0  0
101148  1  0  0  0  0
103149  1  0  0  0  0
139150  1  0  0  0  0
M  CHG  1   1  -2
M  END
