 xtb: 6.7.1 (edcfbbe)
          01052609073D

126125  0     0  0            999 V2000
   17.9800    6.1000   44.2600 N   0  0  0  0  0  0  0  0  0  0  0  0
   18.2300    7.0800   44.1800 H   0  0  0  0  0  0  0  0  0  0  0  0
   17.6600    5.3800   45.4700 C   0  0  0  0  0  0  0  0  0  0  0  0
   17.2000    4.4200   45.2300 H   0  0  0  0  0  0  0  0  0  0  0  0
   19.0000    5.0700   46.1300 C   0  0  0  0  0  0  0  0  0  0  0  0
   19.5800    4.4300   45.4700 H   0  0  0  0  0  0  0  0  0  0  0  0
   18.7800    4.6400   47.1100 H   0  0  0  0  0  0  0  0  0  0  0  0
   19.9400    6.2200   46.4300 C   0  0  0  0  0  0  0  0  0  0  0  0
   20.9900    6.5000   45.5500 C   0  0  0  0  0  0  0  0  0  0  0  0
   21.2600    5.8500   44.7300 H   0  0  0  0  0  0  0  0  0  0  0  0
   21.8700    7.5700   45.7200 C   0  0  0  0  0  0  0  0  0  0  0  0
   22.7300    7.6800   45.0700 H   0  0  0  0  0  0  0  0  0  0  0  0
   21.6500    8.4400   46.8000 C   0  0  0  0  0  0  0  0  0  0  0  0
   22.2500    9.3100   46.9900 H   0  0  0  0  0  0  0  0  0  0  0  0
   20.6900    8.0500   47.7500 C   0  0  0  0  0  0  0  0  0  0  0  0
   20.6600    8.6100   48.6700 H   0  0  0  0  0  0  0  0  0  0  0  0
   19.7700    7.0100   47.5700 C   0  0  0  0  0  0  0  0  0  0  0  0
   18.9900    6.7600   48.2700 H   0  0  0  0  0  0  0  0  0  0  0  0
   16.7100    6.0800   46.4400 C   0  0  0  0  0  0  0  0  0  0  0  0
   15.9200    5.4300   47.1200 O   0  0  0  0  0  0  0  0  0  0  0  0
   12.5500   17.9400   53.9300 N   0  0  0  0  0  0  0  0  0  0  0  0
   12.9000   18.3200   53.0600 H   0  0  0  0  0  0  0  0  0  0  0  0
   13.4600   17.3500   54.8900 C   0  0  0  0  0  0  0  0  0  0  0  0
   12.8400   16.8700   55.6500 H   0  0  0  0  0  0  0  0  0  0  0  0
   14.1000   16.2400   54.0600 C   0  0  0  0  0  0  0  0  0  0  0  0
   14.4200   16.5700   53.0800 H   0  0  0  0  0  0  0  0  0  0  0  0
   13.3700   15.5100   53.7100 H   0  0  0  0  0  0  0  0  0  0  0  0
   15.2300   15.5400   54.7700 C   0  0  0  0  0  0  0  0  0  0  0  0
   16.5400   15.9200   54.4500 C   0  0  0  0  0  0  0  0  0  0  0  0
   16.7400   16.6400   53.6700 H   0  0  0  0  0  0  0  0  0  0  0  0
   17.6300   15.3600   55.1300 C   0  0  0  0  0  0  0  0  0  0  0  0
   18.6400   15.6400   54.8900 H   0  0  0  0  0  0  0  0  0  0  0  0
   17.4500   14.3900   56.1300 C   0  0  0  0  0  0  0  0  0  0  0  0
   18.3000   13.8900   56.5800 H   0  0  0  0  0  0  0  0  0  0  0  0
   16.1500   13.9300   56.3400 C   0  0  0  0  0  0  0  0  0  0  0  0
   15.9900   13.2500   57.1600 H   0  0  0  0  0  0  0  0  0  0  0  0
   15.0500   14.4900   55.6700 C   0  0  0  0  0  0  0  0  0  0  0  0
   14.0600   14.0900   55.8600 H   0  0  0  0  0  0  0  0  0  0  0  0
   14.4300   18.2900   55.5900 C   0  0  0  0  0  0  0  0  0  0  0  0
   14.8200   19.2600   54.9500 O   0  0  0  0  0  0  0  0  0  0  0  0
   29.4300    9.0000   51.2100 N   0  0  0  0  0  0  0  0  0  0  0  0
   28.9000    8.9500   50.3500 H   0  0  0  0  0  0  0  0  0  0  0  0
   29.4300    7.9200   52.1800 C   0  0  0  0  0  0  0  0  0  0  0  0
   29.3200    8.3300   53.1900 H   0  0  0  0  0  0  0  0  0  0  0  0
   28.1500    7.1200   52.0000 C   0  0  0  0  0  0  0  0  0  0  0  0
   28.1900    6.2700   52.6800 H   0  0  0  0  0  0  0  0  0  0  0  0
   28.0900    6.6600   51.0200 H   0  0  0  0  0  0  0  0  0  0  0  0
   26.9200    7.9200   52.3500 C   0  0  0  0  0  0  0  0  0  0  0  0
   26.5200    7.9000   53.6900 C   0  0  0  0  0  0  0  0  0  0  0  0
   27.0700    7.3200   54.4200 H   0  0  0  0  0  0  0  0  0  0  0  0
   25.4200    8.7200   53.9900 C   0  0  0  0  0  0  0  0  0  0  0  0
   24.9900    8.7400   54.9800 H   0  0  0  0  0  0  0  0  0  0  0  0
   24.7300    9.3900   52.9600 C   0  0  0  0  0  0  0  0  0  0  0  0
   23.7200   10.2200   53.3300 O   0  0  0  0  0  0  0  0  0  0  0  0
   23.0600   10.4100   52.6600 H   0  0  0  0  0  0  0  0  0  0  0  0
   25.1000    9.2900   51.6100 C   0  0  0  0  0  0  0  0  0  0  0  0
   24.6200    9.8400   50.8100 H   0  0  0  0  0  0  0  0  0  0  0  0
   26.2600    8.5700   51.3000 C   0  0  0  0  0  0  0  0  0  0  0  0
   26.6400    8.4100   50.3000 H   0  0  0  0  0  0  0  0  0  0  0  0
   30.6900    7.0800   52.0500 C   0  0  0  0  0  0  0  0  0  0  0  0
   31.1000    6.3200   52.9200 O   0  0  0  0  0  0  0  0  0  0  0  0
   26.3300    2.6100   52.1300 N   0  0  0  0  0  0  0  0  0  0  0  0
   26.2800    1.9900   51.3300 H   0  0  0  0  0  0  0  0  0  0  0  0
   25.2700    2.6200   53.1100 C   0  0  0  0  0  0  0  0  0  0  0  0
   25.6000    2.6600   54.1500 H   0  0  0  0  0  0  0  0  0  0  0  0
   24.4200    3.8700   52.9200 C   0  0  0  0  0  0  0  0  0  0  0  0
   23.8200    3.8200   52.0200 H   0  0  0  0  0  0  0  0  0  0  0  0
   25.0000    4.7700   52.6900 H   0  0  0  0  0  0  0  0  0  0  0  0
   23.5200    4.1900   54.0900 C   0  0  0  0  0  0  0  0  0  0  0  0
   22.2600    3.6000   54.2100 N   0  0  0  0  0  0  0  0  0  0  0  0
   21.8400    4.1800   55.3400 C   0  0  0  0  0  0  0  0  0  0  0  0
   20.9400    3.8300   55.8300 H   0  0  0  0  0  0  0  0  0  0  0  0
   22.7300    4.9900   55.9400 N   0  0  0  0  0  0  0  0  0  0  0  0
   22.6200    5.4600   56.8300 H   0  0  0  0  0  0  0  0  0  0  0  0
   23.8800    4.9400   55.1800 C   0  0  0  0  0  0  0  0  0  0  0  0
   24.7800    5.5000   55.3600 H   0  0  0  0  0  0  0  0  0  0  0  0
   24.4900    1.3500   52.8100 C   0  0  0  0  0  0  0  0  0  0  0  0
   24.3500    0.9800   51.6500 O   0  0  0  0  0  0  0  0  0  0  0  0
   21.6100    0.0100   49.7500 N   0  0  0  0  0  0  0  0  0  0  0  0
   22.3100    0.1600   50.4600 H   0  0  0  0  0  0  0  0  0  0  0  0
   21.2400    1.1900   48.9900 C   0  0  0  0  0  0  0  0  0  0  0  0
   20.4900    0.8600   48.2800 H   0  0  0  0  0  0  0  0  0  0  0  0
   20.4000    2.0500   49.9300 C   0  0  0  0  0  0  0  0  0  0  0  0
   19.7000    1.4200   50.4800 H   0  0  0  0  0  0  0  0  0  0  0  0
   21.3300    2.8100   50.8800 C   0  0  0  0  0  0  0  0  0  0  0  0
   20.7600    3.4400   51.5600 H   0  0  0  0  0  0  0  0  0  0  0  0
   21.7600    2.2000   51.6700 H   0  0  0  0  0  0  0  0  0  0  0  0
   22.1300    3.3400   50.3700 H   0  0  0  0  0  0  0  0  0  0  0  0
   19.6000    3.0500   49.1000 C   0  0  0  0  0  0  0  0  0  0  0  0
   18.9900    2.4900   48.3900 H   0  0  0  0  0  0  0  0  0  0  0  0
   20.3100    3.6400   48.5200 H   0  0  0  0  0  0  0  0  0  0  0  0
   18.6700    3.9900   49.8700 C   0  0  0  0  0  0  0  0  0  0  0  0
   17.8800    3.4400   50.3700 H   0  0  0  0  0  0  0  0  0  0  0  0
   19.0900    4.7800   50.4900 H   0  0  0  0  0  0  0  0  0  0  0  0
   18.1900    4.6000   49.1000 H   0  0  0  0  0  0  0  0  0  0  0  0
   22.3500    1.9300   48.2700 C   0  0  0  0  0  0  0  0  0  0  0  0
   22.0700    2.3300   47.1400 O   0  0  0  0  0  0  0  0  0  0  0  0
   23.6000    2.0600   48.7400 N   0  0  0  0  0  0  0  0  0  0  0  0
   23.8400    1.6000   49.6100 H   0  0  0  0  0  0  0  0  0  0  0  0
   24.7000    2.8100   48.1800 C   0  0  0  0  0  0  0  0  0  0  0  0
   24.3900    3.0000   47.1600 H   0  0  0  0  0  0  0  0  0  0  0  0
   24.9700    4.2100   48.7200 C   0  0  0  0  0  0  0  0  0  0  0  0
   25.1000    4.2300   49.8000 H   0  0  0  0  0  0  0  0  0  0  0  0
   26.3600    4.7500   48.3800 C   0  0  0  0  0  0  0  0  0  0  0  0
   26.5600    4.6800   47.3100 H   0  0  0  0  0  0  0  0  0  0  0  0
   26.4700    5.7900   48.6900 H   0  0  0  0  0  0  0  0  0  0  0  0
   27.1300    4.1600   48.8800 H   0  0  0  0  0  0  0  0  0  0  0  0
   23.8200    5.1600   48.4000 C   0  0  0  0  0  0  0  0  0  0  0  0
   22.8900    4.7600   48.8100 H   0  0  0  0  0  0  0  0  0  0  0  0
   23.8200    5.1000   47.3100 H   0  0  0  0  0  0  0  0  0  0  0  0
   24.0900    6.5100   49.0600 C   0  0  0  0  0  0  0  0  0  0  0  0
   24.1200    6.3900   50.1400 H   0  0  0  0  0  0  0  0  0  0  0  0
   24.9300    7.0600   48.6300 H   0  0  0  0  0  0  0  0  0  0  0  0
   23.2600    7.2200   49.0200 H   0  0  0  0  0  0  0  0  0  0  0  0
   25.9300    1.9200   48.3000 C   0  0  0  0  0  0  0  0  0  0  0  0
   26.3400    1.5600   49.4000 O   0  0  0  0  0  0  0  0  0  0  0  0
   17.8140    5.6390   43.3770 H   0  0  0  0  0  0  0  0  0  0  0  0
   16.6020    7.1740   46.3900 H   0  0  0  0  0  0  0  0  0  0  0  0
   11.5410   17.9020   53.9530 H   0  0  0  0  0  0  0  0  0  0  0  0
   14.7020   18.0510   56.6290 H   0  0  0  0  0  0  0  0  0  0  0  0
   29.8550    9.8950   51.4070 H   0  0  0  0  0  0  0  0  0  0  0  0
   31.2790    7.1700   51.1250 H   0  0  0  0  0  0  0  0  0  0  0  0
   27.2110    3.0350   52.3810 H   0  0  0  0  0  0  0  0  0  0  0  0
   24.1210    0.7180   53.6310 H   0  0  0  0  0  0  0  0  0  0  0  0
   21.0650   -0.8380   49.8030 H   0  0  0  0  0  0  0  0  0  0  0  0
   26.4750    1.6230   47.3920 H   0  0  0  0  0  0  0  0  0  0  0  0
  1  2  1  0  0  0  0
  1  3  1  0  0  0  0
  3  4  1  0  0  0  0
  3  5  1  0  0  0  0
  5  6  1  0  0  0  0
  5  7  1  0  0  0  0
  5  8  1  0  0  0  0
  8  9  4  0  0  0  0
  9 10  1  0  0  0  0
  9 11  4  0  0  0  0
 11 12  1  0  0  0  0
 11 13  4  0  0  0  0
 13 14  1  0  0  0  0
 13 15  4  0  0  0  0
 15 16  1  0  0  0  0
  8 17  4  0  0  0  0
 15 17  4  0  0  0  0
 17 18  1  0  0  0  0
  3 19  1  0  0  0  0
 19 20  2  0  0  0  0
 21 22  1  0  0  0  0
 21 23  1  0  0  0  0
 23 24  1  0  0  0  0
 23 25  1  0  0  0  0
 25 26  1  0  0  0  0
 25 27  1  0  0  0  0
 25 28  1  0  0  0  0
 28 29  4  0  0  0  0
 29 30  1  0  0  0  0
 29 31  4  0  0  0  0
 31 32  1  0  0  0  0
 31 33  4  0  0  0  0
 33 34  1  0  0  0  0
 33 35  4  0  0  0  0
 35 36  1  0  0  0  0
 28 37  4  0  0  0  0
 35 37  4  0  0  0  0
 37 38  1  0  0  0  0
 23 39  1  0  0  0  0
 39 40  2  0  0  0  0
 41 42  1  0  0  0  0
 41 43  1  0  0  0  0
 43 44  1  0  0  0  0
 43 45  1  0  0  0  0
 45 46  1  0  0  0  0
 45 47  1  0  0  0  0
 45 48  1  0  0  0  0
 48 49  4  0  0  0  0
 49 50  1  0  0  0  0
 49 51  4  0  0  0  0
 51 52  1  0  0  0  0
 51 53  4  0  0  0  0
 53 54  1  0  0  0  0
 54 55  1  0  0  0  0
 53 56  4  0  0  0  0
 56 57  1  0  0  0  0
 48 58  4  0  0  0  0
 56 58  4  0  0  0  0
 58 59  1  0  0  0  0
 43 60  1  0  0  0  0
 60 61  2  0  0  0  0
 62 63  1  0  0  0  0
 62 64  1  0  0  0  0
 64 65  1  0  0  0  0
 64 66  1  0  0  0  0
 66 67  1  0  0  0  0
 66 68  1  0  0  0  0
 66 69  1  0  0  0  0
 69 70  4  0  0  0  0
 70 71  2  0  0  0  0
 71 72  1  0  0  0  0
 71 73  4  0  0  0  0
 73 74  1  0  0  0  0
 69 75  2  0  0  0  0
 73 75  1  0  0  0  0
 75 76  1  0  0  0  0
 64 77  1  0  0  0  0
 77 78  2  0  0  0  0
 79 80  1  0  0  0  0
 79 81  1  0  0  0  0
 81 82  1  0  0  0  0
 81 83  1  0  0  0  0
 83 84  1  0  0  0  0
 83 85  1  0  0  0  0
 85 86  1  0  0  0  0
 85 87  1  0  0  0  0
 85 88  1  0  0  0  0
 83 89  1  0  0  0  0
 89 90  1  0  0  0  0
 89 91  1  0  0  0  0
 89 92  1  0  0  0  0
 92 93  1  0  0  0  0
 92 94  1  0  0  0  0
 92 95  1  0  0  0  0
 81 96  1  0  0  0  0
 96 97  2  0  0  0  0
 96 98  4  0  0  0  0
 98 99  1  0  0  0  0
 98100  1  0  0  0  0
100101  1  0  0  0  0
100102  1  0  0  0  0
102103  1  0  0  0  0
102104  1  0  0  0  0
104105  1  0  0  0  0
104106  1  0  0  0  0
104107  1  0  0  0  0
102108  1  0  0  0  0
108109  1  0  0  0  0
108110  1  0  0  0  0
108111  1  0  0  0  0
111112  1  0  0  0  0
111113  1  0  0  0  0
111114  1  0  0  0  0
100115  1  0  0  0  0
115116  2  0  0  0  0
  1117  1  0  0  0  0
 19118  1  0  0  0  0
 21119  1  0  0  0  0
 39120  1  0  0  0  0
 41121  1  0  0  0  0
 60122  1  0  0  0  0
 62123  1  0  0  0  0
 77124  1  0  0  0  0
 79125  1  0  0  0  0
115126  1  0  0  0  0
M  END
