 xtb: 6.7.1 (edcfbbe)
          01052609073D

 59 61  0     0  0            999 V2000
   18.2900    7.5200   59.6300 C   0  0  0  0  0  0  0  0  0  0  0  0
   17.2400    7.9400   60.4200 N   0  0  0  0  0  0  0  0  0  0  0  0
   16.6400    7.4000   61.5600 C   0  0  0  0  0  0  0  0  0  0  0  0
   13.6300    8.3100   63.5700 C   0  0  0  0  0  0  0  0  0  0  0  0
   17.3500    6.4700   62.5200 C   0  0  0  0  0  0  0  0  0  0  0  0
   18.3200    7.2200   63.4000 C   0  0  0  0  0  0  0  0  0  0  0  0
   17.7800    7.9200   64.4900 C   0  0  0  0  0  0  0  0  0  0  0  0
   18.5700    8.7400   65.2900 C   0  0  0  0  0  0  0  0  0  0  0  0
   19.9500    8.7800   65.0500 C   0  0  0  0  0  0  0  0  0  0  0  0
   20.4900    8.1000   63.9600 C   0  0  0  0  0  0  0  0  0  0  0  0
   19.6700    7.3800   63.0700 C   0  0  0  0  0  0  0  0  0  0  0  0
   14.8800    7.8200   63.0900 O   0  0  0  0  0  0  0  0  0  0  0  0
   14.6900    8.6500   60.9800 O   0  0  0  0  0  0  0  0  0  0  0  0
   15.3200    8.0300   61.8200 C   0  0  0  0  0  0  0  0  0  0  0  0
   13.3100    7.3600   64.7300 C   0  0  0  0  0  0  0  0  0  0  0  0
   17.2200    7.3200   56.6200 C   0  0  0  0  0  0  0  0  0  0  0  0
   18.9500    6.5400   59.9400 O   0  0  0  0  0  0  0  0  0  0  0  0
   16.4000    8.5700   56.2600 C   0  0  0  0  0  0  0  0  0  0  0  0
   16.2100    9.7400   57.6700 S   0  0  0  0  0  0  0  0  0  0  0  0
   17.9400    9.7400   58.3100 C   0  0  0  0  0  0  0  0  0  0  0  0
   18.6100    8.3600   58.3900 C   0  0  0  0  0  0  0  0  0  0  0  0
   18.5600    7.7100   57.0800 N   0  0  0  0  0  0  0  0  0  0  0  0
   19.6700    6.4300   56.9200 S   0  0  0  0  0  0  0  0  0  0  0  0
   20.1300    6.1600   55.2100 C   0  0  0  0  0  0  0  0  0  0  0  0
   20.8700    7.1600   54.5800 C   0  0  0  0  0  0  0  0  0  0  0  0
   21.2500    6.9000   53.2600 C   0  0  0  0  0  0  0  0  0  0  0  0
   20.6700    5.8800   52.5000 C   0  0  0  0  0  0  0  0  0  0  0  0
   19.6800    5.0900   53.0900 C   0  0  0  0  0  0  0  0  0  0  0  0
   19.5500    5.1100   54.4800 C   0  0  0  0  0  0  0  0  0  0  0  0
   18.9400    5.2700   57.4500 O   0  0  0  0  0  0  0  0  0  0  0  0
   20.8700    6.8500   57.6400 O   0  0  0  0  0  0  0  0  0  0  0  0
   21.0200    5.7200   51.0300 C   0  0  0  0  0  0  0  0  0  0  0  0
   16.7300    8.7300   60.0400 H   0  0  0  0  0  0  0  0  0  0  0  0
   13.7300    9.3400   63.9300 H   0  0  0  0  0  0  0  0  0  0  0  0
   12.9100    8.2100   62.7400 H   0  0  0  0  0  0  0  0  0  0  0  0
   16.6800    5.9000   63.1800 H   0  0  0  0  0  0  0  0  0  0  0  0
   17.8800    5.7100   61.9400 H   0  0  0  0  0  0  0  0  0  0  0  0
   16.7000    7.9200   64.6200 H   0  0  0  0  0  0  0  0  0  0  0  0
   18.0500    9.2400   66.1100 H   0  0  0  0  0  0  0  0  0  0  0  0
   20.4900    9.5500   65.6000 H   0  0  0  0  0  0  0  0  0  0  0  0
   21.5500    8.0500   63.7400 H   0  0  0  0  0  0  0  0  0  0  0  0
   20.0700    6.7700   62.2700 H   0  0  0  0  0  0  0  0  0  0  0  0
   12.9700    6.4000   64.3200 H   0  0  0  0  0  0  0  0  0  0  0  0
   12.4700    7.6400   65.3600 H   0  0  0  0  0  0  0  0  0  0  0  0
   14.2500    7.3300   65.3000 H   0  0  0  0  0  0  0  0  0  0  0  0
   16.6600    6.9000   57.4700 H   0  0  0  0  0  0  0  0  0  0  0  0
   17.2500    6.6600   55.7500 H   0  0  0  0  0  0  0  0  0  0  0  0
   16.9100    9.1100   55.4500 H   0  0  0  0  0  0  0  0  0  0  0  0
   15.3900    8.2600   55.9900 H   0  0  0  0  0  0  0  0  0  0  0  0
   18.5100   10.3400   57.5900 H   0  0  0  0  0  0  0  0  0  0  0  0
   17.9700   10.0800   59.3500 H   0  0  0  0  0  0  0  0  0  0  0  0
   19.6300    8.5500   58.7400 H   0  0  0  0  0  0  0  0  0  0  0  0
   21.2500    8.0200   55.1300 H   0  0  0  0  0  0  0  0  0  0  0  0
   21.8700    7.6400   52.7600 H   0  0  0  0  0  0  0  0  0  0  0  0
   19.1800    4.3600   52.4500 H   0  0  0  0  0  0  0  0  0  0  0  0
   18.9200    4.3800   54.9700 H   0  0  0  0  0  0  0  0  0  0  0  0
   20.3300    6.3700   50.5000 H   0  0  0  0  0  0  0  0  0  0  0  0
   21.0000    4.6800   50.6800 H   0  0  0  0  0  0  0  0  0  0  0  0
   22.0300    6.1400   50.9300 H   0  0  0  0  0  0  0  0  0  0  0  0
  1  2  1  0  0  0  0
  2  3  4  0  0  0  0
  3  5  1  0  0  0  0
  5  6  1  0  0  0  0
  6  7  4  0  0  0  0
  7  8  4  0  0  0  0
  8  9  4  0  0  0  0
  9 10  4  0  0  0  0
  6 11  4  0  0  0  0
 10 11  4  0  0  0  0
  4 12  1  0  0  0  0
  3 14  1  0  0  0  0
 12 14  1  0  0  0  0
 13 14  2  0  0  0  0
  4 15  1  0  0  0  0
  1 17  2  0  0  0  0
 16 18  1  0  0  0  0
 18 19  1  0  0  0  0
 19 20  1  0  0  0  0
  1 21  1  0  0  0  0
 20 21  1  0  0  0  0
 16 22  1  0  0  0  0
 21 22  1  0  0  0  0
 22 23  1  0  0  0  0
 23 24  1  0  0  0  0
 24 25  4  0  0  0  0
 25 26  4  0  0  0  0
 26 27  4  0  0  0  0
 27 28  4  0  0  0  0
 24 29  4  0  0  0  0
 28 29  4  0  0  0  0
 23 30  2  0  0  0  0
 23 31  2  0  0  0  0
 27 32  1  0  0  0  0
  2 33  1  0  0  0  0
  4 34  1  0  0  0  0
  4 35  1  0  0  0  0
  5 36  1  0  0  0  0
  5 37  1  0  0  0  0
  7 38  1  0  0  0  0
  8 39  1  0  0  0  0
  9 40  1  0  0  0  0
 10 41  1  0  0  0  0
 11 42  1  0  0  0  0
 15 43  1  0  0  0  0
 15 44  1  0  0  0  0
 15 45  1  0  0  0  0
 16 46  1  0  0  0  0
 16 47  1  0  0  0  0
 18 48  1  0  0  0  0
 18 49  1  0  0  0  0
 20 50  1  0  0  0  0
 20 51  1  0  0  0  0
 21 52  1  0  0  0  0
 25 53  1  0  0  0  0
 26 54  1  0  0  0  0
 28 55  1  0  0  0  0
 29 56  1  0  0  0  0
 32 57  1  0  0  0  0
 32 58  1  0  0  0  0
 32 59  1  0  0  0  0
M  CHG  1   1   1
M  END
