 xtb: 6.7.1 (edcfbbe)
          01052609083D

 59 61  0     0  0            999 V2000
   39.3800   29.0200   44.1900 C   0  0  0  0  0  0  0  0  0  0  0  0
   38.6700   30.0700   44.7400 N   0  0  0  0  0  0  0  0  0  0  0  0
   38.9700   30.9900   45.7500 C   0  0  0  0  0  0  0  0  0  0  0  0
   37.4300   32.1800   48.8500 C   0  0  0  0  0  0  0  0  0  0  0  0
   40.3900   31.4800   45.9100 C   0  0  0  0  0  0  0  0  0  0  0  0
   40.9600   32.1000   44.6500 C   0  0  0  0  0  0  0  0  0  0  0  0
   42.1700   31.6600   44.1200 C   0  0  0  0  0  0  0  0  0  0  0  0
   42.7400   32.3100   43.0300 C   0  0  0  0  0  0  0  0  0  0  0  0
   41.9600   33.1500   42.2300 C   0  0  0  0  0  0  0  0  0  0  0  0
   40.7900   33.6800   42.7800 C   0  0  0  0  0  0  0  0  0  0  0  0
   40.2900   33.1200   43.9600 C   0  0  0  0  0  0  0  0  0  0  0  0
   38.3400   31.8900   47.7800 O   0  0  0  0  0  0  0  0  0  0  0  0
   36.6700   31.0700   46.4300 O   0  0  0  0  0  0  0  0  0  0  0  0
   37.8400   31.3400   46.6500 C   0  0  0  0  0  0  0  0  0  0  0  0
   38.2600   32.8100   49.9800 C   0  0  0  0  0  0  0  0  0  0  0  0
   37.5700   26.4900   43.9700 C   0  0  0  0  0  0  0  0  0  0  0  0
   40.4200   28.6600   44.7100 O   0  0  0  0  0  0  0  0  0  0  0  0
   36.1300   26.9900   43.7500 C   0  0  0  0  0  0  0  0  0  0  0  0
   36.0800   28.8200   43.5700 S   0  0  0  0  0  0  0  0  0  0  0  0
   37.5000   29.1400   42.4500 C   0  0  0  0  0  0  0  0  0  0  0  0
   38.7300   28.3700   42.9600 C   0  0  0  0  0  0  0  0  0  0  0  0
   38.5900   26.9100   43.0000 N   0  0  0  0  0  0  0  0  0  0  0  0
   38.8600   26.1300   41.5100 S   0  0  0  0  0  0  0  0  0  0  0  0
   38.6200   24.4100   41.9600 C   0  0  0  0  0  0  0  0  0  0  0  0
   37.3200   23.8900   41.9200 C   0  0  0  0  0  0  0  0  0  0  0  0
   37.1300   22.5500   42.2600 C   0  0  0  0  0  0  0  0  0  0  0  0
   38.2200   21.7900   42.6900 C   0  0  0  0  0  0  0  0  0  0  0  0
   39.5100   22.3400   42.7200 C   0  0  0  0  0  0  0  0  0  0  0  0
   39.7500   23.6400   42.2800 C   0  0  0  0  0  0  0  0  0  0  0  0
   40.2500   26.4400   41.1800 O   0  0  0  0  0  0  0  0  0  0  0  0
   37.7500   26.5500   40.6500 O   0  0  0  0  0  0  0  0  0  0  0  0
   37.9800   20.3400   43.0600 C   0  0  0  0  0  0  0  0  0  0  0  0
   37.7200   30.0800   44.4000 H   0  0  0  0  0  0  0  0  0  0  0  0
   36.6600   32.8900   48.5100 H   0  0  0  0  0  0  0  0  0  0  0  0
   37.0100   31.2200   49.1500 H   0  0  0  0  0  0  0  0  0  0  0  0
   40.5100   32.1800   46.7400 H   0  0  0  0  0  0  0  0  0  0  0  0
   41.1000   30.6800   46.1300 H   0  0  0  0  0  0  0  0  0  0  0  0
   42.7500   30.8700   44.6000 H   0  0  0  0  0  0  0  0  0  0  0  0
   43.7700   32.0800   42.7700 H   0  0  0  0  0  0  0  0  0  0  0  0
   42.2900   33.4800   41.2500 H   0  0  0  0  0  0  0  0  0  0  0  0
   40.2300   34.4500   42.2500 H   0  0  0  0  0  0  0  0  0  0  0  0
   39.3700   33.5100   44.3900 H   0  0  0  0  0  0  0  0  0  0  0  0
   38.9200   32.0800   50.4600 H   0  0  0  0  0  0  0  0  0  0  0  0
   37.5800   33.2000   50.7500 H   0  0  0  0  0  0  0  0  0  0  0  0
   38.9700   33.5900   49.7000 H   0  0  0  0  0  0  0  0  0  0  0  0
   37.9100   26.7200   44.9800 H   0  0  0  0  0  0  0  0  0  0  0  0
   37.5200   25.3900   44.0400 H   0  0  0  0  0  0  0  0  0  0  0  0
   35.8400   26.4500   42.8400 H   0  0  0  0  0  0  0  0  0  0  0  0
   35.5200   26.5900   44.5800 H   0  0  0  0  0  0  0  0  0  0  0  0
   37.1400   28.8600   41.4500 H   0  0  0  0  0  0  0  0  0  0  0  0
   37.6500   30.2300   42.5300 H   0  0  0  0  0  0  0  0  0  0  0  0
   39.5500   28.6400   42.2800 H   0  0  0  0  0  0  0  0  0  0  0  0
   36.5000   24.5400   41.6300 H   0  0  0  0  0  0  0  0  0  0  0  0
   36.1400   22.1100   42.3600 H   0  0  0  0  0  0  0  0  0  0  0  0
   40.2900   21.6600   43.0500 H   0  0  0  0  0  0  0  0  0  0  0  0
   40.7200   24.0900   42.0600 H   0  0  0  0  0  0  0  0  0  0  0  0
   38.8600   19.7200   42.8800 H   0  0  0  0  0  0  0  0  0  0  0  0
   37.2400   19.9200   42.3700 H   0  0  0  0  0  0  0  0  0  0  0  0
   37.6000   20.2400   44.0800 H   0  0  0  0  0  0  0  0  0  0  0  0
  1  2  1  0  0  0  0
  2  3  4  0  0  0  0
  3  5  1  0  0  0  0
  5  6  1  0  0  0  0
  6  7  4  0  0  0  0
  7  8  4  0  0  0  0
  8  9  4  0  0  0  0
  9 10  4  0  0  0  0
  6 11  4  0  0  0  0
 10 11  4  0  0  0  0
  4 12  1  0  0  0  0
  3 14  1  0  0  0  0
 12 14  1  0  0  0  0
 13 14  2  0  0  0  0
  4 15  1  0  0  0  0
  1 17  2  0  0  0  0
 16 18  1  0  0  0  0
 18 19  1  0  0  0  0
 19 20  1  0  0  0  0
  1 21  1  0  0  0  0
 20 21  1  0  0  0  0
 16 22  1  0  0  0  0
 21 22  1  0  0  0  0
 22 23  1  0  0  0  0
 23 24  1  0  0  0  0
 24 25  4  0  0  0  0
 25 26  4  0  0  0  0
 26 27  4  0  0  0  0
 27 28  4  0  0  0  0
 24 29  4  0  0  0  0
 28 29  4  0  0  0  0
 23 30  2  0  0  0  0
 23 31  2  0  0  0  0
 27 32  1  0  0  0  0
  2 33  1  0  0  0  0
  4 34  1  0  0  0  0
  4 35  1  0  0  0  0
  5 36  1  0  0  0  0
  5 37  1  0  0  0  0
  7 38  1  0  0  0  0
  8 39  1  0  0  0  0
  9 40  1  0  0  0  0
 10 41  1  0  0  0  0
 11 42  1  0  0  0  0
 15 43  1  0  0  0  0
 15 44  1  0  0  0  0
 15 45  1  0  0  0  0
 16 46  1  0  0  0  0
 16 47  1  0  0  0  0
 18 48  1  0  0  0  0
 18 49  1  0  0  0  0
 20 50  1  0  0  0  0
 20 51  1  0  0  0  0
 21 52  1  0  0  0  0
 25 53  1  0  0  0  0
 26 54  1  0  0  0  0
 28 55  1  0  0  0  0
 29 56  1  0  0  0  0
 32 57  1  0  0  0  0
 32 58  1  0  0  0  0
 32 59  1  0  0  0  0
M  CHG  1   1   1
M  END
