 xtb: 6.7.1 (edcfbbe)
          01052609073D

116115  0     0  0            999 V2000
   15.9700   10.9500   43.4300 N   0  0  0  0  0  0  0  0  0  0  0  0
   16.6000   11.7400   43.4300 H   0  0  0  0  0  0  0  0  0  0  0  0
   15.8600   10.1900   44.6600 C   0  0  0  0  0  0  0  0  0  0  0  0
   15.3500    9.2500   44.4200 H   0  0  0  0  0  0  0  0  0  0  0  0
   17.2200    9.7100   45.1300 C   0  0  0  0  0  0  0  0  0  0  0  0
   17.6900    9.1300   44.3300 H   0  0  0  0  0  0  0  0  0  0  0  0
   17.0300    9.0100   45.9500 H   0  0  0  0  0  0  0  0  0  0  0  0
   18.1200   10.8200   45.6300 C   0  0  0  0  0  0  0  0  0  0  0  0
   19.2300   11.2000   44.8800 C   0  0  0  0  0  0  0  0  0  0  0  0
   19.4200   10.7500   43.9200 H   0  0  0  0  0  0  0  0  0  0  0  0
   20.0500   12.2700   45.2600 C   0  0  0  0  0  0  0  0  0  0  0  0
   20.8600   12.5700   44.6000 H   0  0  0  0  0  0  0  0  0  0  0  0
   19.8200   12.8700   46.5000 C   0  0  0  0  0  0  0  0  0  0  0  0
   20.5200   13.6300   46.8300 H   0  0  0  0  0  0  0  0  0  0  0  0
   18.7200   12.4900   47.2900 C   0  0  0  0  0  0  0  0  0  0  0  0
   18.4600   13.0200   48.1900 H   0  0  0  0  0  0  0  0  0  0  0  0
   17.8800   11.4700   46.8500 C   0  0  0  0  0  0  0  0  0  0  0  0
   17.0100   11.2200   47.4400 H   0  0  0  0  0  0  0  0  0  0  0  0
   15.0400   10.8400   45.7600 C   0  0  0  0  0  0  0  0  0  0  0  0
   14.5600   10.1700   46.6800 O   0  0  0  0  0  0  0  0  0  0  0  0
   14.8600   12.1600   45.6900 N   0  0  0  0  0  0  0  0  0  0  0  0
   15.2400   12.6500   44.8900 H   0  0  0  0  0  0  0  0  0  0  0  0
   14.1100   13.0400   46.5600 C   0  0  0  0  0  0  0  0  0  0  0  0
   13.1600   12.5300   46.7300 H   0  0  0  0  0  0  0  0  0  0  0  0
   14.9100   13.1500   47.8600 C   0  0  0  0  0  0  0  0  0  0  0  0
   15.9300   13.4800   47.6400 H   0  0  0  0  0  0  0  0  0  0  0  0
   14.9500   12.1100   48.1600 H   0  0  0  0  0  0  0  0  0  0  0  0
   14.1700   13.9000   48.9600 C   0  0  0  0  0  0  0  0  0  0  0  0
   12.9200   13.7800   49.0000 O   0  0  0  0  0  0  0  0  0  0  0  0
   14.7900   14.4700   49.8800 O   0  0  0  0  0  0  0  0  0  0  0  0
   13.8000   14.4100   45.9600 C   0  0  0  0  0  0  0  0  0  0  0  0
   14.6600   15.0200   45.3400 O   0  0  0  0  0  0  0  0  0  0  0  0
   25.7600    9.6900   52.1700 N   0  0  0  0  0  0  0  0  0  0  0  0
   25.9800    9.6700   51.1800 H   0  0  0  0  0  0  0  0  0  0  0  0
   25.2200    8.4900   52.7800 C   0  0  0  0  0  0  0  0  0  0  0  0
   25.2100    8.6400   53.8600 H   0  0  0  0  0  0  0  0  0  0  0  0
   23.8300    8.2800   52.1900 C   0  0  0  0  0  0  0  0  0  0  0  0
   23.5200    7.2700   52.4600 H   0  0  0  0  0  0  0  0  0  0  0  0
   23.9200    8.4100   51.1100 H   0  0  0  0  0  0  0  0  0  0  0  0
   22.7800    9.2400   52.7000 C   0  0  0  0  0  0  0  0  0  0  0  0
   22.0900    8.9300   53.8700 C   0  0  0  0  0  0  0  0  0  0  0  0
   22.4400    8.0700   54.4200 H   0  0  0  0  0  0  0  0  0  0  0  0
   21.0800    9.7800   54.3500 C   0  0  0  0  0  0  0  0  0  0  0  0
   20.5500    9.4800   55.2400 H   0  0  0  0  0  0  0  0  0  0  0  0
   20.7800   10.9400   53.6000 C   0  0  0  0  0  0  0  0  0  0  0  0
   19.9700   11.9100   54.1200 O   0  0  0  0  0  0  0  0  0  0  0  0
   19.9800   12.7000   53.5800 H   0  0  0  0  0  0  0  0  0  0  0  0
   21.4500   11.2300   52.4000 C   0  0  0  0  0  0  0  0  0  0  0  0
   21.3200   12.1400   51.8300 H   0  0  0  0  0  0  0  0  0  0  0  0
   22.4300   10.3500   51.9200 C   0  0  0  0  0  0  0  0  0  0  0  0
   22.8800   10.3800   50.9400 H   0  0  0  0  0  0  0  0  0  0  0  0
   26.0800    7.2400   52.6100 C   0  0  0  0  0  0  0  0  0  0  0  0
   25.6900    6.1600   53.0300 O   0  0  0  0  0  0  0  0  0  0  0  0
   21.3100    5.4800   51.6000 N   0  0  0  0  0  0  0  0  0  0  0  0
   21.2000    5.5100   50.6000 H   0  0  0  0  0  0  0  0  0  0  0  0
   20.0400    5.4900   52.3000 C   0  0  0  0  0  0  0  0  0  0  0  0
   20.1600    5.3000   53.3700 H   0  0  0  0  0  0  0  0  0  0  0  0
   19.2100    6.7700   52.3600 C   0  0  0  0  0  0  0  0  0  0  0  0
   18.5100    6.7300   51.5200 H   0  0  0  0  0  0  0  0  0  0  0  0
   19.8200    7.6700   52.2800 H   0  0  0  0  0  0  0  0  0  0  0  0
   18.2800    6.6900   53.5400 C   0  0  0  0  0  0  0  0  0  0  0  0
   18.5100    7.0100   54.8700 N   0  0  0  0  0  0  0  0  0  0  0  0
   17.4700    6.6000   55.5900 C   0  0  0  0  0  0  0  0  0  0  0  0
   17.4100    6.7500   56.6600 H   0  0  0  0  0  0  0  0  0  0  0  0
   16.6100    5.9400   54.7900 N   0  0  0  0  0  0  0  0  0  0  0  0
   15.7400    5.5100   55.0500 H   0  0  0  0  0  0  0  0  0  0  0  0
   17.1400    5.9300   53.5200 C   0  0  0  0  0  0  0  0  0  0  0  0
   16.6800    5.4200   52.6900 H   0  0  0  0  0  0  0  0  0  0  0  0
   19.1900    4.3900   51.7000 C   0  0  0  0  0  0  0  0  0  0  0  0
   18.8500    4.5800   50.5300 O   0  0  0  0  0  0  0  0  0  0  0  0
   16.4000    3.8900   48.4300 N   0  0  0  0  0  0  0  0  0  0  0  0
   17.2700    3.7200   48.9200 H   0  0  0  0  0  0  0  0  0  0  0  0
   16.2800    5.1100   47.6600 C   0  0  0  0  0  0  0  0  0  0  0  0
   15.9400    4.8400   46.6600 H   0  0  0  0  0  0  0  0  0  0  0  0
   15.4200    6.1300   48.3900 C   0  0  0  0  0  0  0  0  0  0  0  0
   14.5300    5.5600   48.6800 H   0  0  0  0  0  0  0  0  0  0  0  0
   16.0000    6.6100   49.7200 C   0  0  0  0  0  0  0  0  0  0  0  0
   16.7600    7.3200   49.3900 H   0  0  0  0  0  0  0  0  0  0  0  0
   15.2100    7.1300   50.2600 H   0  0  0  0  0  0  0  0  0  0  0  0
   16.5300    5.8500   50.2900 H   0  0  0  0  0  0  0  0  0  0  0  0
   14.9900    7.2500   47.4400 C   0  0  0  0  0  0  0  0  0  0  0  0
   15.8900    7.5900   46.9200 H   0  0  0  0  0  0  0  0  0  0  0  0
   14.6400    8.0400   48.1000 H   0  0  0  0  0  0  0  0  0  0  0  0
   13.8800    6.8700   46.4600 C   0  0  0  0  0  0  0  0  0  0  0  0
   12.9800    6.5800   47.0100 H   0  0  0  0  0  0  0  0  0  0  0  0
   13.7100    7.7300   45.8200 H   0  0  0  0  0  0  0  0  0  0  0  0
   14.2300    6.1000   45.7600 H   0  0  0  0  0  0  0  0  0  0  0  0
   17.6100    5.7400   47.2400 C   0  0  0  0  0  0  0  0  0  0  0  0
   17.7500    5.9400   46.0400 O   0  0  0  0  0  0  0  0  0  0  0  0
   18.5800    5.9100   48.1300 N   0  0  0  0  0  0  0  0  0  0  0  0
   18.4000    5.7900   49.1200 H   0  0  0  0  0  0  0  0  0  0  0  0
   19.9300    6.2600   47.7400 C   0  0  0  0  0  0  0  0  0  0  0  0
   19.9700    6.7700   46.7700 H   0  0  0  0  0  0  0  0  0  0  0  0
   20.4400    7.3400   48.7000 C   0  0  0  0  0  0  0  0  0  0  0  0
   20.2400    7.1400   49.7500 H   0  0  0  0  0  0  0  0  0  0  0  0
   21.9000    7.6600   48.4000 C   0  0  0  0  0  0  0  0  0  0  0  0
   21.9200    8.0100   47.3700 H   0  0  0  0  0  0  0  0  0  0  0  0
   22.2800    8.3700   49.1400 H   0  0  0  0  0  0  0  0  0  0  0  0
   22.5800    6.8300   48.5700 H   0  0  0  0  0  0  0  0  0  0  0  0
   19.6600    8.6400   48.5000 C   0  0  0  0  0  0  0  0  0  0  0  0
   18.6100    8.3600   48.4700 H   0  0  0  0  0  0  0  0  0  0  0  0
   19.8600    8.9600   47.4700 H   0  0  0  0  0  0  0  0  0  0  0  0
   20.0200    9.8000   49.4200 C   0  0  0  0  0  0  0  0  0  0  0  0
   21.0500   10.0600   49.1500 H   0  0  0  0  0  0  0  0  0  0  0  0
   19.3300   10.6200   49.2500 H   0  0  0  0  0  0  0  0  0  0  0  0
   19.9700    9.4900   50.4700 H   0  0  0  0  0  0  0  0  0  0  0  0
   20.8000    5.0100   47.7400 C   0  0  0  0  0  0  0  0  0  0  0  0
   21.0600    4.4600   48.8000 O   0  0  0  0  0  0  0  0  0  0  0  0
   15.4650   10.7920   42.5700 H   0  0  0  0  0  0  0  0  0  0  0  0
   12.8080   14.8480   46.1420 H   0  0  0  0  0  0  0  0  0  0  0  0
   25.9420   10.5250   52.7090 H   0  0  0  0  0  0  0  0  0  0  0  0
   27.0450    7.4220   52.1150 H   0  0  0  0  0  0  0  0  0  0  0  0
   22.1370    5.0480   51.9870 H   0  0  0  0  0  0  0  0  0  0  0  0
   19.0180    3.4220   52.1920 H   0  0  0  0  0  0  0  0  0  0  0  0
   15.7030    3.1630   48.3540 H   0  0  0  0  0  0  0  0  0  0  0  0
   21.2020    4.6330   46.7880 H   0  0  0  0  0  0  0  0  0  0  0  0
  1  2  1  0  0  0  0
  1  3  1  0  0  0  0
  3  4  1  0  0  0  0
  3  5  1  0  0  0  0
  5  6  1  0  0  0  0
  5  7  1  0  0  0  0
  5  8  1  0  0  0  0
  8  9  4  0  0  0  0
  9 10  1  0  0  0  0
  9 11  4  0  0  0  0
 11 12  1  0  0  0  0
 11 13  4  0  0  0  0
 13 14  1  0  0  0  0
 13 15  4  0  0  0  0
 15 16  1  0  0  0  0
  8 17  4  0  0  0  0
 15 17  4  0  0  0  0
 17 18  1  0  0  0  0
  3 19  1  0  0  0  0
 19 20  2  0  0  0  0
 19 21  4  0  0  0  0
 21 22  1  0  0  0  0
 21 23  1  0  0  0  0
 23 24  1  0  0  0  0
 23 25  1  0  0  0  0
 25 26  1  0  0  0  0
 25 27  1  0  0  0  0
 25 28  1  0  0  0  0
 28 29  4  0  0  0  0
 28 30  4  0  0  0  0
 23 31  1  0  0  0  0
 31 32  2  0  0  0  0
 33 34  1  0  0  0  0
 33 35  1  0  0  0  0
 35 36  1  0  0  0  0
 35 37  1  0  0  0  0
 37 38  1  0  0  0  0
 37 39  1  0  0  0  0
 37 40  1  0  0  0  0
 40 41  4  0  0  0  0
 41 42  1  0  0  0  0
 41 43  4  0  0  0  0
 43 44  1  0  0  0  0
 43 45  4  0  0  0  0
 45 46  1  0  0  0  0
 46 47  1  0  0  0  0
 45 48  4  0  0  0  0
 48 49  1  0  0  0  0
 40 50  4  0  0  0  0
 48 50  4  0  0  0  0
 50 51  1  0  0  0  0
 35 52  1  0  0  0  0
 52 53  2  0  0  0  0
 54 55  1  0  0  0  0
 54 56  1  0  0  0  0
 56 57  1  0  0  0  0
 56 58  1  0  0  0  0
 58 59  1  0  0  0  0
 58 60  1  0  0  0  0
 58 61  1  0  0  0  0
 61 62  4  0  0  0  0
 62 63  2  0  0  0  0
 63 64  1  0  0  0  0
 63 65  4  0  0  0  0
 65 66  1  0  0  0  0
 61 67  2  0  0  0  0
 65 67  4  0  0  0  0
 67 68  1  0  0  0  0
 56 69  1  0  0  0  0
 69 70  2  0  0  0  0
 71 72  1  0  0  0  0
 71 73  1  0  0  0  0
 73 74  1  0  0  0  0
 73 75  1  0  0  0  0
 75 76  1  0  0  0  0
 75 77  1  0  0  0  0
 77 78  1  0  0  0  0
 77 79  1  0  0  0  0
 77 80  1  0  0  0  0
 75 81  1  0  0  0  0
 81 82  1  0  0  0  0
 81 83  1  0  0  0  0
 81 84  1  0  0  0  0
 84 85  1  0  0  0  0
 84 86  1  0  0  0  0
 84 87  1  0  0  0  0
 73 88  1  0  0  0  0
 88 89  2  0  0  0  0
 88 90  4  0  0  0  0
 90 91  1  0  0  0  0
 90 92  1  0  0  0  0
 92 93  1  0  0  0  0
 92 94  1  0  0  0  0
 94 95  1  0  0  0  0
 94 96  1  0  0  0  0
 96 97  1  0  0  0  0
 96 98  1  0  0  0  0
 96 99  1  0  0  0  0
 94100  1  0  0  0  0
100101  1  0  0  0  0
100102  1  0  0  0  0
100103  1  0  0  0  0
103104  1  0  0  0  0
103105  1  0  0  0  0
103106  1  0  0  0  0
 92107  1  0  0  0  0
107108  2  0  0  0  0
  1109  1  0  0  0  0
 31110  1  0  0  0  0
 33111  1  0  0  0  0
 52112  1  0  0  0  0
 54113  1  0  0  0  0
 69114  1  0  0  0  0
 71115  1  0  0  0  0
107116  1  0  0  0  0
M  CHG  1   1  -1
M  END
