 xtb: 6.7.1 (edcfbbe)
          01052609073D

 59 61  0     0  0            999 V2000
   14.4800    8.3200    1.9100 C   0  0  0  0  0  0  0  0  0  0  0  0
   14.3700    9.0100    3.0900 N   0  0  0  0  0  0  0  0  0  0  0  0
   13.2500    9.3800    3.8600 C   0  0  0  0  0  0  0  0  0  0  0  0
   12.7300   11.9900    6.4600 C   0  0  0  0  0  0  0  0  0  0  0  0
   11.8900    8.7300    3.7700 C   0  0  0  0  0  0  0  0  0  0  0  0
   11.9900    7.4100    4.5100 C   0  0  0  0  0  0  0  0  0  0  0  0
   11.5900    6.2000    3.9400 C   0  0  0  0  0  0  0  0  0  0  0  0
   11.4400    5.0200    4.6700 C   0  0  0  0  0  0  0  0  0  0  0  0
   12.0000    4.8900    5.9400 C   0  0  0  0  0  0  0  0  0  0  0  0
   12.4200    6.0800    6.5500 C   0  0  0  0  0  0  0  0  0  0  0  0
   12.3700    7.2900    5.8500 C   0  0  0  0  0  0  0  0  0  0  0  0
   12.4800   10.8700    5.6200 O   0  0  0  0  0  0  0  0  0  0  0  0
   14.6800   10.7900    5.0500 O   0  0  0  0  0  0  0  0  0  0  0  0
   13.5400   10.3900    4.9100 C   0  0  0  0  0  0  0  0  0  0  0  0
   13.1700   11.4200    7.8200 C   0  0  0  0  0  0  0  0  0  0  0  0
   16.4600   10.4800    0.3900 C   0  0  0  0  0  0  0  0  0  0  0  0
   13.5400    7.8100    1.3200 O   0  0  0  0  0  0  0  0  0  0  0  0
   17.6000   10.8100    1.3700 C   0  0  0  0  0  0  0  0  0  0  0  0
   17.4400   10.0100    3.0200 S   0  0  0  0  0  0  0  0  0  0  0  0
   16.9600    8.3100    2.4900 C   0  0  0  0  0  0  0  0  0  0  0  0
   15.9100    8.2200    1.3700 C   0  0  0  0  0  0  0  0  0  0  0  0
   16.2200    9.0500    0.2000 N   0  0  0  0  0  0  0  0  0  0  0  0
   15.4200    8.7200   -1.2700 S   0  0  0  0  0  0  0  0  0  0  0  0
   16.4900    9.3700   -2.5600 C   0  0  0  0  0  0  0  0  0  0  0  0
   17.8400    9.0200   -2.5300 C   0  0  0  0  0  0  0  0  0  0  0  0
   18.6900    9.4700   -3.5500 C   0  0  0  0  0  0  0  0  0  0  0  0
   18.1600   10.1800   -4.6300 C   0  0  0  0  0  0  0  0  0  0  0  0
   16.8200   10.5600   -4.6300 C   0  0  0  0  0  0  0  0  0  0  0  0
   16.0200   10.2600   -3.5200 C   0  0  0  0  0  0  0  0  0  0  0  0
   14.1900    9.5200   -1.2000 O   0  0  0  0  0  0  0  0  0  0  0  0
   15.4500    7.2600   -1.3000 O   0  0  0  0  0  0  0  0  0  0  0  0
   19.0200   10.6000   -5.8100 C   0  0  0  0  0  0  0  0  0  0  0  0
   15.1800    9.5900    3.2400 H   0  0  0  0  0  0  0  0  0  0  0  0
   13.4600   12.7100    6.0700 H   0  0  0  0  0  0  0  0  0  0  0  0
   11.8300   12.6100    6.5900 H   0  0  0  0  0  0  0  0  0  0  0  0
   11.0700    9.2000    4.3300 H   0  0  0  0  0  0  0  0  0  0  0  0
   11.4800    8.5400    2.7700 H   0  0  0  0  0  0  0  0  0  0  0  0
   11.3600    6.1900    2.8700 H   0  0  0  0  0  0  0  0  0  0  0  0
   10.9300    4.1200    4.3600 H   0  0  0  0  0  0  0  0  0  0  0  0
   12.0300    3.9300    6.4500 H   0  0  0  0  0  0  0  0  0  0  0  0
   12.6400    6.0900    7.6200 H   0  0  0  0  0  0  0  0  0  0  0  0
   12.4300    8.2100    6.4200 H   0  0  0  0  0  0  0  0  0  0  0  0
   12.3100   11.0600    8.3900 H   0  0  0  0  0  0  0  0  0  0  0  0
   13.7700   12.1300    8.4000 H   0  0  0  0  0  0  0  0  0  0  0  0
   13.7400   10.4900    7.6800 H   0  0  0  0  0  0  0  0  0  0  0  0
   15.5400   11.0400    0.6100 H   0  0  0  0  0  0  0  0  0  0  0  0
   16.8400   10.9500   -0.5300 H   0  0  0  0  0  0  0  0  0  0  0  0
   18.5600   10.5500    0.9100 H   0  0  0  0  0  0  0  0  0  0  0  0
   17.5500   11.8800    1.5800 H   0  0  0  0  0  0  0  0  0  0  0  0
   17.9000    7.9100    2.0800 H   0  0  0  0  0  0  0  0  0  0  0  0
   16.6900    7.6500    3.3200 H   0  0  0  0  0  0  0  0  0  0  0  0
   15.8200    7.1500    1.1500 H   0  0  0  0  0  0  0  0  0  0  0  0
   18.2100    8.3700   -1.7300 H   0  0  0  0  0  0  0  0  0  0  0  0
   19.7600    9.2500   -3.5500 H   0  0  0  0  0  0  0  0  0  0  0  0
   16.4000   11.1900   -5.4100 H   0  0  0  0  0  0  0  0  0  0  0  0
   15.0000   10.6300   -3.4600 H   0  0  0  0  0  0  0  0  0  0  0  0
   19.5300    9.6700   -6.1100 H   0  0  0  0  0  0  0  0  0  0  0  0
   19.8300   11.2700   -5.5100 H   0  0  0  0  0  0  0  0  0  0  0  0
   18.3200   10.8700   -6.6000 H   0  0  0  0  0  0  0  0  0  0  0  0
  1  2  1  0  0  0  0
  2  3  4  0  0  0  0
  3  5  1  0  0  0  0
  5  6  1  0  0  0  0
  6  7  4  0  0  0  0
  7  8  4  0  0  0  0
  8  9  4  0  0  0  0
  9 10  4  0  0  0  0
  6 11  4  0  0  0  0
 10 11  4  0  0  0  0
  4 12  1  0  0  0  0
  3 14  1  0  0  0  0
 12 14  1  0  0  0  0
 13 14  2  0  0  0  0
  4 15  1  0  0  0  0
  1 17  2  0  0  0  0
 16 18  1  0  0  0  0
 18 19  1  0  0  0  0
 19 20  1  0  0  0  0
  1 21  1  0  0  0  0
 20 21  1  0  0  0  0
 16 22  1  0  0  0  0
 21 22  1  0  0  0  0
 22 23  1  0  0  0  0
 23 24  1  0  0  0  0
 24 25  4  0  0  0  0
 25 26  4  0  0  0  0
 26 27  4  0  0  0  0
 27 28  4  0  0  0  0
 24 29  4  0  0  0  0
 28 29  4  0  0  0  0
 23 30  2  0  0  0  0
 23 31  2  0  0  0  0
 27 32  1  0  0  0  0
  2 33  1  0  0  0  0
  4 34  1  0  0  0  0
  4 35  1  0  0  0  0
  5 36  1  0  0  0  0
  5 37  1  0  0  0  0
  7 38  1  0  0  0  0
  8 39  1  0  0  0  0
  9 40  1  0  0  0  0
 10 41  1  0  0  0  0
 11 42  1  0  0  0  0
 15 43  1  0  0  0  0
 15 44  1  0  0  0  0
 15 45  1  0  0  0  0
 16 46  1  0  0  0  0
 16 47  1  0  0  0  0
 18 48  1  0  0  0  0
 18 49  1  0  0  0  0
 20 50  1  0  0  0  0
 20 51  1  0  0  0  0
 21 52  1  0  0  0  0
 25 53  1  0  0  0  0
 26 54  1  0  0  0  0
 28 55  1  0  0  0  0
 29 56  1  0  0  0  0
 32 57  1  0  0  0  0
 32 58  1  0  0  0  0
 32 59  1  0  0  0  0
M  CHG  1   1   1
M  END
