 xtb: 6.7.1 (edcfbbe)
          01052609073D

213211  0     0  0            999 V2000
   15.6100   22.3500   48.0000 N   0  0  0  0  0  0  0  0  0  0  0  0
   15.1700   22.9000   48.7200 H   0  0  0  0  0  0  0  0  0  0  0  0
   15.3200   20.9300   48.0300 C   0  0  0  0  0  0  0  0  0  0  0  0
   15.4500   20.5600   47.0100 H   0  0  0  0  0  0  0  0  0  0  0  0
   16.3400   20.2200   48.9200 C   0  0  0  0  0  0  0  0  0  0  0  0
   17.2900   20.5800   48.5200 H   0  0  0  0  0  0  0  0  0  0  0  0
   16.1800   19.1800   48.6600 H   0  0  0  0  0  0  0  0  0  0  0  0
   16.2600   20.4200   50.4100 C   0  0  0  0  0  0  0  0  0  0  0  0
   15.6200   19.4400   51.1900 C   0  0  0  0  0  0  0  0  0  0  0  0
   15.1100   18.6200   50.7000 H   0  0  0  0  0  0  0  0  0  0  0  0
   15.4200   19.6000   52.5700 C   0  0  0  0  0  0  0  0  0  0  0  0
   14.8000   18.9500   53.1600 H   0  0  0  0  0  0  0  0  0  0  0  0
   15.9600   20.7400   53.2000 C   0  0  0  0  0  0  0  0  0  0  0  0
   15.8500   20.9700   54.5400 O   0  0  0  0  0  0  0  0  0  0  0  0
   15.1700   20.4900   55.0100 H   0  0  0  0  0  0  0  0  0  0  0  0
   16.6600   21.6900   52.4300 C   0  0  0  0  0  0  0  0  0  0  0  0
   17.0800   22.5600   52.9100 H   0  0  0  0  0  0  0  0  0  0  0  0
   16.7600   21.5600   51.0400 C   0  0  0  0  0  0  0  0  0  0  0  0
   17.2400   22.3000   50.4200 H   0  0  0  0  0  0  0  0  0  0  0  0
   13.9100   20.6200   48.5000 C   0  0  0  0  0  0  0  0  0  0  0  0
   13.3200   21.3700   49.2700 O   0  0  0  0  0  0  0  0  0  0  0  0
    8.1500   15.1300   53.6400 N   0  0  0  0  0  0  0  0  0  0  0  0
    8.9400   15.1800   53.0100 H   0  0  0  0  0  0  0  0  0  0  0  0
    8.5100   15.3000   55.0300 C   0  0  0  0  0  0  0  0  0  0  0  0
    7.6300   15.3400   55.6700 H   0  0  0  0  0  0  0  0  0  0  0  0
    9.3100   14.1200   55.5700 C   0  0  0  0  0  0  0  0  0  0  0  0
    8.7200   13.2200   55.4000 H   0  0  0  0  0  0  0  0  0  0  0  0
    9.2700   14.2800   56.6500 H   0  0  0  0  0  0  0  0  0  0  0  0
   10.7100   13.9700   55.0200 C   0  0  0  0  0  0  0  0  0  0  0  0
   10.9900   12.9000   54.1700 C   0  0  0  0  0  0  0  0  0  0  0  0
   10.1800   12.2800   53.8200 H   0  0  0  0  0  0  0  0  0  0  0  0
   12.3100   12.6700   53.7700 C   0  0  0  0  0  0  0  0  0  0  0  0
   12.6000   11.8800   53.0900 H   0  0  0  0  0  0  0  0  0  0  0  0
   13.3500   13.4600   54.2800 C   0  0  0  0  0  0  0  0  0  0  0  0
   14.3300   13.2700   53.8700 H   0  0  0  0  0  0  0  0  0  0  0  0
   13.0900   14.6100   55.0300 C   0  0  0  0  0  0  0  0  0  0  0  0
   13.8100   15.3800   55.2600 H   0  0  0  0  0  0  0  0  0  0  0  0
   11.7500   14.8300   55.4000 C   0  0  0  0  0  0  0  0  0  0  0  0
   11.5800   15.5500   56.1800 H   0  0  0  0  0  0  0  0  0  0  0  0
    9.2100   16.6300   55.2900 C   0  0  0  0  0  0  0  0  0  0  0  0
    9.1400   17.1600   56.3900 O   0  0  0  0  0  0  0  0  0  0  0  0
    9.8200   17.2400   54.2700 N   0  0  0  0  0  0  0  0  0  0  0  0
    9.8700   16.7200   53.4100 H   0  0  0  0  0  0  0  0  0  0  0  0
   10.3700   18.5700   54.4100 C   0  0  0  0  0  0  0  0  0  0  0  0
    9.6800   19.2100   54.9700 H   0  0  0  0  0  0  0  0  0  0  0  0
   11.7400   18.4600   55.0900 C   0  0  0  0  0  0  0  0  0  0  0  0
   12.4500   18.1200   54.3400 H   0  0  0  0  0  0  0  0  0  0  0  0
   11.6600   17.7700   55.9200 H   0  0  0  0  0  0  0  0  0  0  0  0
   12.1600   19.7900   55.7000 C   0  0  0  0  0  0  0  0  0  0  0  0
   11.3000   20.5800   56.1500 O   0  0  0  0  0  0  0  0  0  0  0  0
   13.3400   20.1800   55.5700 O   0  0  0  0  0  0  0  0  0  0  0  0
   10.5400   19.2700   53.0700 C   0  0  0  0  0  0  0  0  0  0  0  0
   10.7700   18.5600   52.1000 O   0  0  0  0  0  0  0  0  0  0  0  0
   12.4500   23.1000   51.7100 N   0  0  0  0  0  0  0  0  0  0  0  0
   12.9600   22.4000   51.1900 H   0  0  0  0  0  0  0  0  0  0  0  0
   12.9000   24.4700   51.8200 C   0  0  0  0  0  0  0  0  0  0  0  0
   12.6500   24.8200   52.8200 H   0  0  0  0  0  0  0  0  0  0  0  0
   14.4200   24.4500   51.6600 C   0  0  0  0  0  0  0  0  0  0  0  0
   14.7800   23.6900   52.3500 H   0  0  0  0  0  0  0  0  0  0  0  0
   14.8700   25.3900   51.9600 H   0  0  0  0  0  0  0  0  0  0  0  0
   14.8200   24.1800   50.3300 O   0  0  0  0  0  0  0  0  0  0  0  0
   14.7800   25.0200   49.8700 H   0  0  0  0  0  0  0  0  0  0  0  0
   12.2800   25.4500   50.8400 C   0  0  0  0  0  0  0  0  0  0  0  0
   12.3300   26.6500   51.0700 O   0  0  0  0  0  0  0  0  0  0  0  0
    9.3400   27.0600   52.6800 N   0  0  0  0  0  0  0  0  0  0  0  0
    9.9600   26.3200   52.3700 H   0  0  0  0  0  0  0  0  0  0  0  0
    9.9700   28.1900   53.3300 C   0  0  0  0  0  0  0  0  0  0  0  0
    9.1700   28.5200   53.9900 H   0  0  0  0  0  0  0  0  0  0  0  0
   11.1100   27.7900   54.2700 C   0  0  0  0  0  0  0  0  0  0  0  0
   11.3200   28.6800   54.8700 H   0  0  0  0  0  0  0  0  0  0  0  0
   12.0600   27.5600   53.7900 H   0  0  0  0  0  0  0  0  0  0  0  0
   10.7600   26.6500   55.2200 C   0  0  0  0  0  0  0  0  0  0  0  0
   10.4400   25.7600   54.6800 H   0  0  0  0  0  0  0  0  0  0  0  0
    9.8600   26.9900   55.7200 H   0  0  0  0  0  0  0  0  0  0  0  0
   11.8900   26.2800   56.1700 C   0  0  0  0  0  0  0  0  0  0  0  0
   11.4400   26.0600   57.1400 H   0  0  0  0  0  0  0  0  0  0  0  0
   12.4500   27.1900   56.3900 H   0  0  0  0  0  0  0  0  0  0  0  0
   12.7800   25.2400   55.6600 N   0  0  0  0  0  0  0  0  0  0  0  0
   13.7200   25.4600   55.3500 H   0  0  0  0  0  0  0  0  0  0  0  0
   12.5700   23.9200   55.7500 C   0  0  0  0  0  0  0  0  0  0  0  0
   11.4800   23.3300   56.2600 N   0  0  0  0  0  0  0  0  0  0  0  0
   10.7000   23.9200   56.5100 H   0  0  0  0  0  0  0  0  0  0  0  0
   11.3900   22.3300   56.3600 H   0  0  0  0  0  0  0  0  0  0  0  0
   13.5200   23.0400   55.3800 N   0  0  0  0  0  0  0  0  0  0  0  0
   14.4600   23.3900   55.3200 H   0  0  0  0  0  0  0  0  0  0  0  0
   13.3600   22.0500   55.4200 H   0  0  0  0  0  0  0  0  0  0  0  0
   10.3400   29.4100   52.5000 C   0  0  0  0  0  0  0  0  0  0  0  0
   10.4700   30.5100   53.0200 O   0  0  0  0  0  0  0  0  0  0  0  0
   13.2000   30.2800   50.3300 N   0  0  0  0  0  0  0  0  0  0  0  0
   13.2200   29.2800   50.3200 H   0  0  0  0  0  0  0  0  0  0  0  0
   14.5000   30.7000   50.7900 C   0  0  0  0  0  0  0  0  0  0  0  0
   14.7900   31.6500   50.3200 H   0  0  0  0  0  0  0  0  0  0  0  0
   14.5100   30.8900   52.3000 C   0  0  0  0  0  0  0  0  0  0  0  0
   15.5500   30.8300   52.6200 H   0  0  0  0  0  0  0  0  0  0  0  0
   14.0500   30.0600   52.8300 H   0  0  0  0  0  0  0  0  0  0  0  0
   13.8600   32.2300   52.6500 C   0  0  0  0  0  0  0  0  0  0  0  0
   12.7800   32.2300   52.4700 H   0  0  0  0  0  0  0  0  0  0  0  0
   14.2000   33.0000   51.9600 H   0  0  0  0  0  0  0  0  0  0  0  0
   14.1800   32.6200   54.0800 C   0  0  0  0  0  0  0  0  0  0  0  0
   15.2500   32.5100   54.2500 H   0  0  0  0  0  0  0  0  0  0  0  0
   13.7300   31.8600   54.7100 H   0  0  0  0  0  0  0  0  0  0  0  0
   13.7200   34.0600   54.3100 C   0  0  0  0  0  0  0  0  0  0  0  0
   13.0500   34.3300   53.4900 H   0  0  0  0  0  0  0  0  0  0  0  0
   14.6200   34.6800   54.3000 H   0  0  0  0  0  0  0  0  0  0  0  0
   13.1300   34.2100   55.6400 N   0  0  0  0  0  0  0  0  0  0  0  0
   13.0200   35.2000   55.8100 H   0  0  0  0  0  0  0  0  0  0  0  0
   12.2100   33.8000   55.7500 H   0  0  0  0  0  0  0  0  0  0  0  0
   13.7100   33.9200   56.4200 H   0  0  0  0  0  0  0  0  0  0  0  0
   15.5400   29.6200   50.5300 C   0  0  0  0  0  0  0  0  0  0  0  0
   15.2200   28.4500   50.7600 O   0  0  0  0  0  0  0  0  0  0  0  0
   16.7300   29.9100   50.0100 N   0  0  0  0  0  0  0  0  0  0  0  0
   17.2000   31.2600   49.7700 C   0  0  0  0  0  0  0  0  0  0  0  0
   16.8500   31.9900   50.4900 H   0  0  0  0  0  0  0  0  0  0  0  0
   17.0300   31.5400   48.7300 H   0  0  0  0  0  0  0  0  0  0  0  0
   18.7200   31.2100   49.8300 C   0  0  0  0  0  0  0  0  0  0  0  0
   19.0100   31.3100   50.8700 H   0  0  0  0  0  0  0  0  0  0  0  0
   19.2600   31.9100   49.1800 H   0  0  0  0  0  0  0  0  0  0  0  0
   19.0000   29.8100   49.2900 C   0  0  0  0  0  0  0  0  0  0  0  0
   19.9600   29.4300   49.6400 H   0  0  0  0  0  0  0  0  0  0  0  0
   18.8400   29.9300   48.2200 H   0  0  0  0  0  0  0  0  0  0  0  0
   17.8700   29.0200   49.9500 C   0  0  0  0  0  0  0  0  0  0  0  0
   17.6500   28.1400   49.3500 H   0  0  0  0  0  0  0  0  0  0  0  0
   18.1400   28.4800   51.3500 C   0  0  0  0  0  0  0  0  0  0  0  0
   18.1400   29.2000   52.3500 O   0  0  0  0  0  0  0  0  0  0  0  0
   18.5900   27.2200   51.3800 N   0  0  0  0  0  0  0  0  0  0  0  0
   18.6200   26.7100   50.5100 H   0  0  0  0  0  0  0  0  0  0  0  0
   19.3700   26.5200   52.3900 C   0  0  0  0  0  0  0  0  0  0  0  0
   19.3100   27.1800   53.2600 H   0  0  0  0  0  0  0  0  0  0  0  0
   18.6000   25.2700   52.7900 C   0  0  0  0  0  0  0  0  0  0  0  0
   18.3800   24.6900   51.8900 H   0  0  0  0  0  0  0  0  0  0  0  0
   17.6300   25.6300   53.1400 H   0  0  0  0  0  0  0  0  0  0  0  0
   19.2500   24.4600   53.8900 C   0  0  0  0  0  0  0  0  0  0  0  0
   20.2400   23.5500   53.5100 C   0  0  0  0  0  0  0  0  0  0  0  0
   20.5800   23.4800   52.4900 H   0  0  0  0  0  0  0  0  0  0  0  0
   20.9700   22.8200   54.4600 C   0  0  0  0  0  0  0  0  0  0  0  0
   21.6600   22.0700   54.0900 H   0  0  0  0  0  0  0  0  0  0  0  0
   20.6800   22.9900   55.8200 C   0  0  0  0  0  0  0  0  0  0  0  0
   21.2700   22.4600   56.5500 H   0  0  0  0  0  0  0  0  0  0  0  0
   19.6000   23.7900   56.2000 C   0  0  0  0  0  0  0  0  0  0  0  0
   19.4200   23.7900   57.2700 H   0  0  0  0  0  0  0  0  0  0  0  0
   18.9300   24.5600   55.2500 C   0  0  0  0  0  0  0  0  0  0  0  0
   18.1500   25.2200   55.5800 H   0  0  0  0  0  0  0  0  0  0  0  0
   20.8300   26.4100   52.0000 C   0  0  0  0  0  0  0  0  0  0  0  0
   21.1000   26.4200   50.8000 O   0  0  0  0  0  0  0  0  0  0  0  0
   14.0300    9.8200   62.9000 N   0  0  0  0  0  0  0  0  0  0  0  0
   13.2500    9.5300   62.3200 H   0  0  0  0  0  0  0  0  0  0  0  0
   13.7600   11.1300   63.4700 C   0  0  0  0  0  0  0  0  0  0  0  0
   14.5000   11.3100   64.2500 H   0  0  0  0  0  0  0  0  0  0  0  0
   13.9600   12.1300   62.3400 C   0  0  0  0  0  0  0  0  0  0  0  0
   13.1700   12.0300   61.6000 H   0  0  0  0  0  0  0  0  0  0  0  0
   14.9100   11.8700   61.8700 H   0  0  0  0  0  0  0  0  0  0  0  0
   13.9500   13.5700   62.8000 C   0  0  0  0  0  0  0  0  0  0  0  0
   15.0900   14.3600   62.9300 N   0  0  0  0  0  0  0  0  0  0  0  0
   14.6900   15.6200   63.1500 C   0  0  0  0  0  0  0  0  0  0  0  0
   15.3700   16.4500   63.2700 H   0  0  0  0  0  0  0  0  0  0  0  0
   13.3600   15.6400   63.3400 N   0  0  0  0  0  0  0  0  0  0  0  0
   12.9100   16.5100   63.5600 H   0  0  0  0  0  0  0  0  0  0  0  0
   12.8800   14.3700   63.1000 C   0  0  0  0  0  0  0  0  0  0  0  0
   11.8400   14.0800   63.0300 H   0  0  0  0  0  0  0  0  0  0  0  0
   12.3300   11.1200   63.9700 C   0  0  0  0  0  0  0  0  0  0  0  0
   11.4500   10.6800   63.2200 O   0  0  0  0  0  0  0  0  0  0  0  0
    8.2800   11.0400   62.3700 N   0  0  0  0  0  0  0  0  0  0  0  0
    9.2000   10.8500   62.7400 H   0  0  0  0  0  0  0  0  0  0  0  0
    8.2900   11.5300   61.0000 C   0  0  0  0  0  0  0  0  0  0  0  0
    7.2500   11.4200   60.6800 H   0  0  0  0  0  0  0  0  0  0  0  0
    8.6100   13.0200   60.8400 C   0  0  0  0  0  0  0  0  0  0  0  0
    7.9500   13.6400   61.4500 H   0  0  0  0  0  0  0  0  0  0  0  0
   10.0800   13.2500   61.1400 C   0  0  0  0  0  0  0  0  0  0  0  0
   10.4700   12.5200   61.8500 H   0  0  0  0  0  0  0  0  0  0  0  0
   10.8000   13.2100   60.3200 H   0  0  0  0  0  0  0  0  0  0  0  0
   10.1100   14.2300   61.6300 H   0  0  0  0  0  0  0  0  0  0  0  0
    8.3100   13.4000   59.4000 C   0  0  0  0  0  0  0  0  0  0  0  0
    7.3300   13.0700   59.0700 H   0  0  0  0  0  0  0  0  0  0  0  0
    9.0400   12.9000   58.7500 H   0  0  0  0  0  0  0  0  0  0  0  0
    8.3700   14.9100   59.1700 C   0  0  0  0  0  0  0  0  0  0  0  0
    9.3200   15.3500   58.8700 H   0  0  0  0  0  0  0  0  0  0  0  0
    7.6900   15.0800   58.3300 H   0  0  0  0  0  0  0  0  0  0  0  0
    7.9900   15.4100   60.0500 H   0  0  0  0  0  0  0  0  0  0  0  0
    9.0700   10.6900   60.0100 C   0  0  0  0  0  0  0  0  0  0  0  0
    8.5400   10.2200   59.0000 O   0  0  0  0  0  0  0  0  0  0  0  0
   10.3400   10.3300   60.2500 N   0  0  0  0  0  0  0  0  0  0  0  0
   10.7600   10.6900   61.0900 H   0  0  0  0  0  0  0  0  0  0  0  0
   11.1700    9.4200   59.4900 C   0  0  0  0  0  0  0  0  0  0  0  0
   10.8300    9.2400   58.4800 H   0  0  0  0  0  0  0  0  0  0  0  0
   12.5700   10.0000   59.3300 C   0  0  0  0  0  0  0  0  0  0  0  0
   12.9500   10.3500   60.2900 H   0  0  0  0  0  0  0  0  0  0  0  0
   13.5400    8.9800   58.7300 C   0  0  0  0  0  0  0  0  0  0  0  0
   14.5300    9.3800   58.5100 H   0  0  0  0  0  0  0  0  0  0  0  0
   13.8300    8.4200   59.6200 H   0  0  0  0  0  0  0  0  0  0  0  0
   13.1200    8.4100   57.9100 H   0  0  0  0  0  0  0  0  0  0  0  0
   12.4500   11.1600   58.3500 C   0  0  0  0  0  0  0  0  0  0  0  0
   11.4300   11.4800   58.1500 H   0  0  0  0  0  0  0  0  0  0  0  0
   12.7100   10.8200   57.3400 H   0  0  0  0  0  0  0  0  0  0  0  0
   13.3400   12.3600   58.6900 C   0  0  0  0  0  0  0  0  0  0  0  0
   13.2000   12.8100   59.6700 H   0  0  0  0  0  0  0  0  0  0  0  0
   14.3800   12.1100   58.4700 H   0  0  0  0  0  0  0  0  0  0  0  0
   13.1200   13.1400   57.9600 H   0  0  0  0  0  0  0  0  0  0  0  0
   11.3300    8.1500   60.3300 C   0  0  0  0  0  0  0  0  0  0  0  0
   11.9500    8.1800   61.3900 O   0  0  0  0  0  0  0  0  0  0  0  0
   16.3260   22.7040   47.3820 H   0  0  0  0  0  0  0  0  0  0  0  0
   13.5470   19.5880   48.3840 H   0  0  0  0  0  0  0  0  0  0  0  0
    7.2380   14.8720   53.2910 H   0  0  0  0  0  0  0  0  0  0  0  0
   10.5150   20.3700   53.0540 H   0  0  0  0  0  0  0  0  0  0  0  0
   11.5550   22.8040   52.0740 H   0  0  0  0  0  0  0  0  0  0  0  0
   11.6950   25.0470   50.0000 H   0  0  0  0  0  0  0  0  0  0  0  0
    8.3770   26.9610   52.3920 H   0  0  0  0  0  0  0  0  0  0  0  0
   10.5210   29.2780   51.4230 H   0  0  0  0  0  0  0  0  0  0  0  0
   12.3810   30.8590   50.2100 H   0  0  0  0  0  0  0  0  0  0  0  0
   21.5780   26.4020   52.8060 H   0  0  0  0  0  0  0  0  0  0  0  0
   14.8390    9.2450   63.0890 H   0  0  0  0  0  0  0  0  0  0  0  0
   12.0830   11.6060   64.9250 H   0  0  0  0  0  0  0  0  0  0  0  0
    7.4310   11.0250   62.9160 H   0  0  0  0  0  0  0  0  0  0  0  0
   10.8700    7.2060   60.0020 H   0  0  0  0  0  0  0  0  0  0  0  0
  1  2  1  0  0  0  0
  1  3  1  0  0  0  0
  3  4  1  0  0  0  0
  3  5  1  0  0  0  0
  5  6  1  0  0  0  0
  5  7  1  0  0  0  0
  5  8  1  0  0  0  0
  8  9  4  0  0  0  0
  9 10  1  0  0  0  0
  9 11  4  0  0  0  0
 11 12  1  0  0  0  0
 11 13  4  0  0  0  0
 13 14  1  0  0  0  0
 14 15  1  0  0  0  0
 13 16  4  0  0  0  0
 16 17  1  0  0  0  0
  8 18  4  0  0  0  0
 16 18  4  0  0  0  0
 18 19  1  0  0  0  0
  3 20  1  0  0  0  0
 20 21  2  0  0  0  0
 22 23  1  0  0  0  0
 22 24  1  0  0  0  0
 24 25  1  0  0  0  0
 24 26  1  0  0  0  0
 26 27  1  0  0  0  0
 26 28  1  0  0  0  0
 26 29  1  0  0  0  0
 29 30  4  0  0  0  0
 30 31  1  0  0  0  0
 30 32  4  0  0  0  0
 32 33  1  0  0  0  0
 32 34  4  0  0  0  0
 34 35  1  0  0  0  0
 34 36  4  0  0  0  0
 36 37  1  0  0  0  0
 29 38  4  0  0  0  0
 36 38  4  0  0  0  0
 38 39  1  0  0  0  0
 24 40  1  0  0  0  0
 40 41  2  0  0  0  0
 40 42  4  0  0  0  0
 42 43  1  0  0  0  0
 42 44  1  0  0  0  0
 44 45  1  0  0  0  0
 44 46  1  0  0  0  0
 46 47  1  0  0  0  0
 46 48  1  0  0  0  0
 46 49  1  0  0  0  0
 49 50  4  0  0  0  0
 49 51  4  0  0  0  0
 44 52  1  0  0  0  0
 52 53  2  0  0  0  0
 54 55  1  0  0  0  0
 54 56  1  0  0  0  0
 56 57  1  0  0  0  0
 56 58  1  0  0  0  0
 58 59  1  0  0  0  0
 58 60  1  0  0  0  0
 58 61  1  0  0  0  0
 61 62  1  0  0  0  0
 56 63  1  0  0  0  0
 63 64  2  0  0  0  0
 65 66  1  0  0  0  0
 65 67  1  0  0  0  0
 67 68  1  0  0  0  0
 67 69  1  0  0  0  0
 69 70  1  0  0  0  0
 69 71  1  0  0  0  0
 69 72  1  0  0  0  0
 72 73  1  0  0  0  0
 72 74  1  0  0  0  0
 72 75  1  0  0  0  0
 75 76  1  0  0  0  0
 75 77  1  0  0  0  0
 75 78  1  0  0  0  0
 78 79  1  0  0  0  0
 78 80  4  0  0  0  0
 80 81  4  0  0  0  0
 81 82  1  0  0  0  0
 81 83  1  0  0  0  0
 80 84  4  0  0  0  0
 84 85  1  0  0  0  0
 84 86  1  0  0  0  0
 67 87  1  0  0  0  0
 87 88  2  0  0  0  0
 89 90  1  0  0  0  0
 89 91  1  0  0  0  0
 91 92  1  0  0  0  0
 91 93  1  0  0  0  0
 93 94  1  0  0  0  0
 93 95  1  0  0  0  0
 93 96  1  0  0  0  0
 96 97  1  0  0  0  0
 96 98  1  0  0  0  0
 96 99  1  0  0  0  0
 99100  1  0  0  0  0
 99101  1  0  0  0  0
 99102  1  0  0  0  0
102103  1  0  0  0  0
102104  1  0  0  0  0
102105  1  0  0  0  0
105106  1  0  0  0  0
105107  1  0  0  0  0
105108  1  0  0  0  0
 91109  1  0  0  0  0
109110  2  0  0  0  0
109111  4  0  0  0  0
111112  1  0  0  0  0
112113  1  0  0  0  0
112114  1  0  0  0  0
112115  1  0  0  0  0
115116  1  0  0  0  0
115117  1  0  0  0  0
115118  1  0  0  0  0
118119  1  0  0  0  0
118120  1  0  0  0  0
111121  1  0  0  0  0
118121  1  0  0  0  0
121122  1  0  0  0  0
121123  1  0  0  0  0
123124  2  0  0  0  0
123125  4  0  0  0  0
125126  1  0  0  0  0
125127  1  0  0  0  0
127128  1  0  0  0  0
127129  1  0  0  0  0
129130  1  0  0  0  0
129131  1  0  0  0  0
129132  1  0  0  0  0
132133  4  0  0  0  0
133134  1  0  0  0  0
133135  4  0  0  0  0
135136  1  0  0  0  0
135137  4  0  0  0  0
137138  1  0  0  0  0
137139  4  0  0  0  0
139140  1  0  0  0  0
132141  4  0  0  0  0
139141  4  0  0  0  0
141142  1  0  0  0  0
127143  1  0  0  0  0
143144  2  0  0  0  0
145146  1  0  0  0  0
145147  1  0  0  0  0
147148  1  0  0  0  0
147149  1  0  0  0  0
149150  1  0  0  0  0
149151  1  0  0  0  0
149152  1  0  0  0  0
152153  4  0  0  0  0
153154  2  0  0  0  0
154155  1  0  0  0  0
154156  4  0  0  0  0
156157  1  0  0  0  0
152158  2  0  0  0  0
156158  4  0  0  0  0
158159  1  0  0  0  0
147160  1  0  0  0  0
160161  2  0  0  0  0
162163  1  0  0  0  0
162164  1  0  0  0  0
164165  1  0  0  0  0
164166  1  0  0  0  0
166167  1  0  0  0  0
166168  1  0  0  0  0
168169  1  0  0  0  0
168170  1  0  0  0  0
168171  1  0  0  0  0
166172  1  0  0  0  0
172173  1  0  0  0  0
172174  1  0  0  0  0
172175  1  0  0  0  0
175176  1  0  0  0  0
175177  1  0  0  0  0
175178  1  0  0  0  0
164179  1  0  0  0  0
179180  2  0  0  0  0
179181  4  0  0  0  0
181182  1  0  0  0  0
181183  1  0  0  0  0
183184  1  0  0  0  0
183185  1  0  0  0  0
185186  1  0  0  0  0
185187  1  0  0  0  0
187188  1  0  0  0  0
187189  1  0  0  0  0
187190  1  0  0  0  0
185191  1  0  0  0  0
191192  1  0  0  0  0
191193  1  0  0  0  0
191194  1  0  0  0  0
194195  1  0  0  0  0
194196  1  0  0  0  0
194197  1  0  0  0  0
183198  1  0  0  0  0
198199  2  0  0  0  0
  1200  1  0  0  0  0
 20201  1  0  0  0  0
 22202  1  0  0  0  0
 52203  1  0  0  0  0
 54204  1  0  0  0  0
 63205  1  0  0  0  0
 65206  1  0  0  0  0
 87207  1  0  0  0  0
 89208  1  0  0  0  0
143209  1  0  0  0  0
145210  1  0  0  0  0
160211  1  0  0  0  0
162212  1  0  0  0  0
198213  1  0  0  0  0
M  CHG  1   1   1
M  END
