 xtb: 6.7.1 (edcfbbe)
          01052609073D

225222  0     0  0            999 V2000
   26.4000   30.2400   33.3200 N   0  0  0  0  0  0  0  0  0  0  0  0
   26.5400   29.5000   34.0000 H   0  0  0  0  0  0  0  0  0  0  0  0
   27.2800   30.2700   32.1700 C   0  0  0  0  0  0  0  0  0  0  0  0
   26.7500   30.9600   31.5200 H   0  0  0  0  0  0  0  0  0  0  0  0
   28.5100   31.1300   32.4500 C   0  0  0  0  0  0  0  0  0  0  0  0
   28.1200   32.0900   32.8100 H   0  0  0  0  0  0  0  0  0  0  0  0
   28.9600   31.3600   31.4900 H   0  0  0  0  0  0  0  0  0  0  0  0
   29.6300   30.5100   33.2500 C   0  0  0  0  0  0  0  0  0  0  0  0
   30.4400   29.4700   32.7800 C   0  0  0  0  0  0  0  0  0  0  0  0
   30.4600   29.2800   31.7200 H   0  0  0  0  0  0  0  0  0  0  0  0
   31.4400   28.8800   33.5600 C   0  0  0  0  0  0  0  0  0  0  0  0
   32.0000   28.0600   33.1300 H   0  0  0  0  0  0  0  0  0  0  0  0
   31.6300   29.3800   34.8700 C   0  0  0  0  0  0  0  0  0  0  0  0
   32.5900   28.8100   35.6600 O   0  0  0  0  0  0  0  0  0  0  0  0
   32.6600   27.9600   35.2300 H   0  0  0  0  0  0  0  0  0  0  0  0
   30.8600   30.4500   35.3600 C   0  0  0  0  0  0  0  0  0  0  0  0
   30.9900   30.8200   36.3600 H   0  0  0  0  0  0  0  0  0  0  0  0
   29.8500   30.9700   34.5500 C   0  0  0  0  0  0  0  0  0  0  0  0
   29.3000   31.8400   34.8900 H   0  0  0  0  0  0  0  0  0  0  0  0
   27.6900   28.9600   31.5300 C   0  0  0  0  0  0  0  0  0  0  0  0
   27.6100   27.9300   32.2000 O   0  0  0  0  0  0  0  0  0  0  0  0
   35.3000   24.1000   27.9500 N   0  0  0  0  0  0  0  0  0  0  0  0
   34.6500   24.8600   28.1300 H   0  0  0  0  0  0  0  0  0  0  0  0
   36.1100   23.7100   29.0900 C   0  0  0  0  0  0  0  0  0  0  0  0
   36.4700   22.6900   28.9300 H   0  0  0  0  0  0  0  0  0  0  0  0
   37.3600   24.5800   29.1500 C   0  0  0  0  0  0  0  0  0  0  0  0
   37.8700   24.5900   28.1800 H   0  0  0  0  0  0  0  0  0  0  0  0
   38.0100   24.1500   29.9100 H   0  0  0  0  0  0  0  0  0  0  0  0
   37.2100   26.0000   29.6200 C   0  0  0  0  0  0  0  0  0  0  0  0
   37.0500   27.0700   28.7200 C   0  0  0  0  0  0  0  0  0  0  0  0
   36.9900   26.9100   27.6600 H   0  0  0  0  0  0  0  0  0  0  0  0
   37.0000   28.3900   29.1800 C   0  0  0  0  0  0  0  0  0  0  0  0
   36.9100   29.2000   28.4800 H   0  0  0  0  0  0  0  0  0  0  0  0
   37.0000   28.6300   30.5600 C   0  0  0  0  0  0  0  0  0  0  0  0
   36.9400   29.6600   30.8900 H   0  0  0  0  0  0  0  0  0  0  0  0
   37.0300   27.5600   31.4600 C   0  0  0  0  0  0  0  0  0  0  0  0
   37.0500   27.7400   32.5200 H   0  0  0  0  0  0  0  0  0  0  0  0
   37.2800   26.2600   30.9900 C   0  0  0  0  0  0  0  0  0  0  0  0
   37.4500   25.5300   31.7600 H   0  0  0  0  0  0  0  0  0  0  0  0
   35.2600   23.7200   30.3600 C   0  0  0  0  0  0  0  0  0  0  0  0
   35.7000   23.2200   31.3900 O   0  0  0  0  0  0  0  0  0  0  0  0
   34.0400   24.2600   30.4300 N   0  0  0  0  0  0  0  0  0  0  0  0
   33.6300   24.8300   29.7000 H   0  0  0  0  0  0  0  0  0  0  0  0
   33.2700   24.4300   31.6400 C   0  0  0  0  0  0  0  0  0  0  0  0
   33.2900   23.4300   32.0800 H   0  0  0  0  0  0  0  0  0  0  0  0
   33.8400   25.3900   32.6800 C   0  0  0  0  0  0  0  0  0  0  0  0
   33.7800   26.4100   32.3200 H   0  0  0  0  0  0  0  0  0  0  0  0
   34.8900   25.2200   32.9400 H   0  0  0  0  0  0  0  0  0  0  0  0
   33.1900   25.3200   34.0500 C   0  0  0  0  0  0  0  0  0  0  0  0
   32.9900   26.3700   34.7200 O   0  0  0  0  0  0  0  0  0  0  0  0
   32.7500   24.2200   34.4300 O   0  0  0  0  0  0  0  0  0  0  0  0
   31.8100   24.7800   31.3900 C   0  0  0  0  0  0  0  0  0  0  0  0
   31.4800   25.3600   30.3700 O   0  0  0  0  0  0  0  0  0  0  0  0
   26.3800   22.1400   36.2200 N   0  0  0  0  0  0  0  0  0  0  0  0
   26.8600   22.9300   35.8100 H   0  0  0  0  0  0  0  0  0  0  0  0
   26.2200   22.1800   37.6600 C   0  0  0  0  0  0  0  0  0  0  0  0
   26.2400   21.1800   38.1100 H   0  0  0  0  0  0  0  0  0  0  0  0
   27.3500   23.0000   38.2700 C   0  0  0  0  0  0  0  0  0  0  0  0
   27.0800   23.0200   39.3300 H   0  0  0  0  0  0  0  0  0  0  0  0
   27.3600   24.0000   37.8400 H   0  0  0  0  0  0  0  0  0  0  0  0
   28.7100   22.3100   38.1700 C   0  0  0  0  0  0  0  0  0  0  0  0
   29.0200   22.3300   37.1200 H   0  0  0  0  0  0  0  0  0  0  0  0
   28.5300   21.2400   38.3000 H   0  0  0  0  0  0  0  0  0  0  0  0
   29.8200   22.9800   38.9600 C   0  0  0  0  0  0  0  0  0  0  0  0
   30.7700   22.4400   38.9400 H   0  0  0  0  0  0  0  0  0  0  0  0
   29.5400   23.0400   40.0100 H   0  0  0  0  0  0  0  0  0  0  0  0
   30.1000   24.3300   38.4600 N   0  0  0  0  0  0  0  0  0  0  0  0
   29.6400   25.1100   38.8900 H   0  0  0  0  0  0  0  0  0  0  0  0
   30.9700   24.6300   37.4800 C   0  0  0  0  0  0  0  0  0  0  0  0
   31.6500   23.6400   36.8800 N   0  0  0  0  0  0  0  0  0  0  0  0
   31.4500   22.6900   37.1500 H   0  0  0  0  0  0  0  0  0  0  0  0
   32.0900   23.7900   35.9900 H   0  0  0  0  0  0  0  0  0  0  0  0
   31.1700   25.8900   37.0700 N   0  0  0  0  0  0  0  0  0  0  0  0
   30.6700   26.5500   37.6400 H   0  0  0  0  0  0  0  0  0  0  0  0
   31.8600   26.1400   36.3800 H   0  0  0  0  0  0  0  0  0  0  0  0
   24.8600   22.7200   38.0800 C   0  0  0  0  0  0  0  0  0  0  0  0
   24.6300   22.7000   39.2800 O   0  0  0  0  0  0  0  0  0  0  0  0
   23.8700   25.6400   39.0000 N   0  0  0  0  0  0  0  0  0  0  0  0
   24.6200   25.5100   38.3300 H   0  0  0  0  0  0  0  0  0  0  0  0
   24.0900   26.5700   40.0900 C   0  0  0  0  0  0  0  0  0  0  0  0
   23.1200   26.9000   40.4700 H   0  0  0  0  0  0  0  0  0  0  0  0
   24.9000   25.9200   41.2000 C   0  0  0  0  0  0  0  0  0  0  0  0
   25.8900   25.6000   40.8700 H   0  0  0  0  0  0  0  0  0  0  0  0
   24.3500   25.0300   41.5300 H   0  0  0  0  0  0  0  0  0  0  0  0
   25.1400   26.8200   42.4100 C   0  0  0  0  0  0  0  0  0  0  0  0
   24.1700   27.1800   42.7600 H   0  0  0  0  0  0  0  0  0  0  0  0
   25.6800   27.7300   42.1400 H   0  0  0  0  0  0  0  0  0  0  0  0
   25.9300   26.1000   43.5000 C   0  0  0  0  0  0  0  0  0  0  0  0
   26.7500   25.5800   43.0100 H   0  0  0  0  0  0  0  0  0  0  0  0
   25.3100   25.2900   43.9000 H   0  0  0  0  0  0  0  0  0  0  0  0
   26.3900   26.9400   44.6800 C   0  0  0  0  0  0  0  0  0  0  0  0
   25.5400   27.5300   45.0400 H   0  0  0  0  0  0  0  0  0  0  0  0
   27.1500   27.6800   44.4200 H   0  0  0  0  0  0  0  0  0  0  0  0
   26.9300   26.2200   45.8400 N   0  0  0  0  0  0  0  0  0  0  0  0
   27.7200   25.6400   45.5700 H   0  0  0  0  0  0  0  0  0  0  0  0
   27.1200   26.8500   46.6000 H   0  0  0  0  0  0  0  0  0  0  0  0
   26.1300   25.7400   46.2300 H   0  0  0  0  0  0  0  0  0  0  0  0
   24.8600   27.7900   39.6000 C   0  0  0  0  0  0  0  0  0  0  0  0
   25.9900   27.5600   39.1700 O   0  0  0  0  0  0  0  0  0  0  0  0
   27.3200   31.0600   39.2300 N   0  0  0  0  0  0  0  0  0  0  0  0
   27.0300   31.5000   38.3600 H   0  0  0  0  0  0  0  0  0  0  0  0
   28.5400   31.6500   39.7300 C   0  0  0  0  0  0  0  0  0  0  0  0
   28.9900   31.0500   40.5200 H   0  0  0  0  0  0  0  0  0  0  0  0
   29.4900   31.6700   38.5400 C   0  0  0  0  0  0  0  0  0  0  0  0
   29.0800   32.2800   37.7200 H   0  0  0  0  0  0  0  0  0  0  0  0
   29.6100   30.6600   38.1600 H   0  0  0  0  0  0  0  0  0  0  0  0
   30.8700   32.2300   38.7900 C   0  0  0  0  0  0  0  0  0  0  0  0
   31.4100   33.2100   37.9400 C   0  0  0  0  0  0  0  0  0  0  0  0
   30.8400   33.6300   37.1200 H   0  0  0  0  0  0  0  0  0  0  0  0
   32.6900   33.7400   38.1400 C   0  0  0  0  0  0  0  0  0  0  0  0
   33.0300   34.5600   37.5300 H   0  0  0  0  0  0  0  0  0  0  0  0
   33.5100   33.2400   39.1600 C   0  0  0  0  0  0  0  0  0  0  0  0
   34.5400   33.5700   39.2100 H   0  0  0  0  0  0  0  0  0  0  0  0
   33.0200   32.1900   39.9500 C   0  0  0  0  0  0  0  0  0  0  0  0
   33.6100   31.8300   40.7700 H   0  0  0  0  0  0  0  0  0  0  0  0
   31.6900   31.7700   39.8200 C   0  0  0  0  0  0  0  0  0  0  0  0
   31.4000   30.9000   40.4000 H   0  0  0  0  0  0  0  0  0  0  0  0
   28.2200   32.9900   40.3800 C   0  0  0  0  0  0  0  0  0  0  0  0
   27.3100   33.6900   39.9500 O   0  0  0  0  0  0  0  0  0  0  0  0
   28.9900   33.4300   41.3800 N   0  0  0  0  0  0  0  0  0  0  0  0
   29.5900   32.6900   41.7200 H   0  0  0  0  0  0  0  0  0  0  0  0
   28.9200   34.7000   42.0700 C   0  0  0  0  0  0  0  0  0  0  0  0
   28.5400   35.3000   41.2400 H   0  0  0  0  0  0  0  0  0  0  0  0
   27.8500   34.6400   43.1600 C   0  0  0  0  0  0  0  0  0  0  0  0
   26.9200   34.2900   42.7100 H   0  0  0  0  0  0  0  0  0  0  0  0
   27.6700   35.6800   43.4200 H   0  0  0  0  0  0  0  0  0  0  0  0
   28.1300   33.7900   44.3900 C   0  0  0  0  0  0  0  0  0  0  0  0
   29.0400   34.0800   44.9100 H   0  0  0  0  0  0  0  0  0  0  0  0
   28.2000   32.7200   44.1700 H   0  0  0  0  0  0  0  0  0  0  0  0
   26.9300   33.9700   45.3200 C   0  0  0  0  0  0  0  0  0  0  0  0
   25.9500   33.9000   44.8500 H   0  0  0  0  0  0  0  0  0  0  0  0
   26.9200   34.9500   45.7800 H   0  0  0  0  0  0  0  0  0  0  0  0
   27.0400   32.9300   46.4400 C   0  0  0  0  0  0  0  0  0  0  0  0
   27.7800   33.2400   47.1800 H   0  0  0  0  0  0  0  0  0  0  0  0
   27.2700   31.9400   46.0600 H   0  0  0  0  0  0  0  0  0  0  0  0
   25.7100   32.9200   47.0800 N   0  0  0  0  0  0  0  0  0  0  0  0
   24.9500   32.8400   46.4200 H   0  0  0  0  0  0  0  0  0  0  0  0
   25.6300   32.1000   47.6700 H   0  0  0  0  0  0  0  0  0  0  0  0
   25.4600   33.7800   47.5400 H   0  0  0  0  0  0  0  0  0  0  0  0
   30.2200   35.2900   42.5900 C   0  0  0  0  0  0  0  0  0  0  0  0
   31.0600   34.5000   43.0300 O   0  0  0  0  0  0  0  0  0  0  0  0
   30.2500   36.6200   42.6100 N   0  0  0  0  0  0  0  0  0  0  0  0
   29.4300   37.1500   42.3700 H   0  0  0  0  0  0  0  0  0  0  0  0
   31.2900   37.4500   43.2000 C   0  0  0  0  0  0  0  0  0  0  0  0
   31.6000   37.0600   44.1700 H   0  0  0  0  0  0  0  0  0  0  0  0
   32.5100   37.4300   42.2800 C   0  0  0  0  0  0  0  0  0  0  0  0
   32.9900   36.4700   42.1200 H   0  0  0  0  0  0  0  0  0  0  0  0
   33.3500   38.0300   42.6500 H   0  0  0  0  0  0  0  0  0  0  0  0
   32.2400   37.9000   40.8700 C   0  0  0  0  0  0  0  0  0  0  0  0
   32.1800   39.2400   40.4800 C   0  0  0  0  0  0  0  0  0  0  0  0
   32.4800   40.0100   41.1800 H   0  0  0  0  0  0  0  0  0  0  0  0
   31.9600   39.5100   39.1300 C   0  0  0  0  0  0  0  0  0  0  0  0
   32.1200   40.4700   38.6700 H   0  0  0  0  0  0  0  0  0  0  0  0
   31.6200   38.5200   38.2000 C   0  0  0  0  0  0  0  0  0  0  0  0
   31.3600   38.8500   37.2000 H   0  0  0  0  0  0  0  0  0  0  0  0
   31.8000   37.1800   38.5600 C   0  0  0  0  0  0  0  0  0  0  0  0
   31.5300   36.4300   37.8300 H   0  0  0  0  0  0  0  0  0  0  0  0
   31.9800   36.9000   39.9200 C   0  0  0  0  0  0  0  0  0  0  0  0
   31.9500   35.8300   40.1000 H   0  0  0  0  0  0  0  0  0  0  0  0
   30.8100   38.8700   43.4500 C   0  0  0  0  0  0  0  0  0  0  0  0
   29.9600   39.4000   42.7300 O   0  0  0  0  0  0  0  0  0  0  0  0
   38.2300   38.9700   44.2000 N   0  0  0  0  0  0  0  0  0  0  0  0
   37.5800   39.5900   44.6600 H   0  0  0  0  0  0  0  0  0  0  0  0
   38.1100   37.5600   44.5300 C   0  0  0  0  0  0  0  0  0  0  0  0
   38.9900   37.2300   45.0800 H   0  0  0  0  0  0  0  0  0  0  0  0
   36.9800   37.3100   45.5200 C   0  0  0  0  0  0  0  0  0  0  0  0
   37.3200   37.8400   46.4100 H   0  0  0  0  0  0  0  0  0  0  0  0
   37.0100   36.2300   45.6200 H   0  0  0  0  0  0  0  0  0  0  0  0
   35.5600   37.7700   45.1800 C   0  0  0  0  0  0  0  0  0  0  0  0
   35.3800   37.2600   44.2300 H   0  0  0  0  0  0  0  0  0  0  0  0
   35.5800   38.8500   45.0900 H   0  0  0  0  0  0  0  0  0  0  0  0
   34.4600   37.5100   46.2100 C   0  0  0  0  0  0  0  0  0  0  0  0
   34.7400   36.9700   47.3000 O   0  0  0  0  0  0  0  0  0  0  0  0
   33.2600   37.8300   46.1300 O   0  0  0  0  0  0  0  0  0  0  0  0
   38.0100   36.6400   43.3300 C   0  0  0  0  0  0  0  0  0  0  0  0
   38.0100   35.4300   43.5300 O   0  0  0  0  0  0  0  0  0  0  0  0
   37.9100   37.2000   42.1200 N   0  0  0  0  0  0  0  0  0  0  0  0
   37.9900   38.2000   42.2100 H   0  0  0  0  0  0  0  0  0  0  0  0
   37.8800   36.6800   40.7700 C   0  0  0  0  0  0  0  0  0  0  0  0
   38.1400   35.6300   40.7400 H   0  0  0  0  0  0  0  0  0  0  0  0
   36.4700   36.7500   40.1700 C   0  0  0  0  0  0  0  0  0  0  0  0
   36.4500   36.3800   39.1400 H   0  0  0  0  0  0  0  0  0  0  0  0
   35.5200   35.9200   41.0300 C   0  0  0  0  0  0  0  0  0  0  0  0
   36.1000   35.0200   41.2400 H   0  0  0  0  0  0  0  0  0  0  0  0
   35.2700   36.4200   41.9600 H   0  0  0  0  0  0  0  0  0  0  0  0
   34.5700   35.7000   40.5300 H   0  0  0  0  0  0  0  0  0  0  0  0
   35.9900   38.1900   40.0900 C   0  0  0  0  0  0  0  0  0  0  0  0
   36.5300   38.5900   39.2300 H   0  0  0  0  0  0  0  0  0  0  0  0
   34.9400   38.2300   39.8000 H   0  0  0  0  0  0  0  0  0  0  0  0
   36.1300   38.6900   41.0500 H   0  0  0  0  0  0  0  0  0  0  0  0
   38.8100   37.4700   39.8600 C   0  0  0  0  0  0  0  0  0  0  0  0
   39.2200   38.5900   40.1400 O   0  0  0  0  0  0  0  0  0  0  0  0
   43.7900   22.8200   33.6300 N   0  0  0  0  0  0  0  0  0  0  0  0
   44.6100   23.3900   33.5100 H   0  0  0  0  0  0  0  0  0  0  0  0
   42.6000   23.2500   32.9300 C   0  0  0  0  0  0  0  0  0  0  0  0
   42.2800   22.4600   32.2600 H   0  0  0  0  0  0  0  0  0  0  0  0
   41.4600   23.5500   33.9000 C   0  0  0  0  0  0  0  0  0  0  0  0
   41.2300   22.6000   34.4000 H   0  0  0  0  0  0  0  0  0  0  0  0
   41.9100   24.4300   35.0700 C   0  0  0  0  0  0  0  0  0  0  0  0
   41.3000   24.3100   35.9700 H   0  0  0  0  0  0  0  0  0  0  0  0
   42.9300   24.2300   35.3800 H   0  0  0  0  0  0  0  0  0  0  0  0
   41.8600   25.4800   34.7900 H   0  0  0  0  0  0  0  0  0  0  0  0
   40.1100   23.9600   33.3100 C   0  0  0  0  0  0  0  0  0  0  0  0
   40.2500   24.8400   32.6800 H   0  0  0  0  0  0  0  0  0  0  0  0
   39.4700   24.2100   34.1600 H   0  0  0  0  0  0  0  0  0  0  0  0
   39.3800   22.8900   32.5200 C   0  0  0  0  0  0  0  0  0  0  0  0
   38.3300   23.2000   32.4700 H   0  0  0  0  0  0  0  0  0  0  0  0
   39.8100   22.8400   31.5200 H   0  0  0  0  0  0  0  0  0  0  0  0
   39.3400   21.9000   32.9700 H   0  0  0  0  0  0  0  0  0  0  0  0
   42.8600   24.3500   31.9100 C   0  0  0  0  0  0  0  0  0  0  0  0
   42.4800   24.0700   30.7700 O   0  0  0  0  0  0  0  0  0  0  0  0
   25.8100   31.0410   33.4940 H   0  0  0  0  0  0  0  0  0  0  0  0
   28.2010   28.9270   30.5570 H   0  0  0  0  0  0  0  0  0  0  0  0
   35.2850   23.5920   27.0770 H   0  0  0  0  0  0  0  0  0  0  0  0
   31.1200   24.6490   32.2360 H   0  0  0  0  0  0  0  0  0  0  0  0
   25.8040   21.5490   35.6370 H   0  0  0  0  0  0  0  0  0  0  0  0
   24.2430   23.2630   37.3480 H   0  0  0  0  0  0  0  0  0  0  0  0
   23.0450   25.0950   38.7960 H   0  0  0  0  0  0  0  0  0  0  0  0
   24.4550   28.8050   39.7240 H   0  0  0  0  0  0  0  0  0  0  0  0
   26.6320   30.5760   39.7890 H   0  0  0  0  0  0  0  0  0  0  0  0
   31.2290   39.3960   44.3210 H   0  0  0  0  0  0  0  0  0  0  0  0
   39.0670   39.3130   43.7510 H   0  0  0  0  0  0  0  0  0  0  0  0
   39.1230   36.9430   38.9460 H   0  0  0  0  0  0  0  0  0  0  0  0
   43.8650   21.8690   33.9620 H   0  0  0  0  0  0  0  0  0  0  0  0
   43.4710   25.2410   32.1160 H   0  0  0  0  0  0  0  0  0  0  0  0
  1  2  1  0  0  0  0
  1  3  1  0  0  0  0
  3  4  1  0  0  0  0
  3  5  1  0  0  0  0
  5  6  1  0  0  0  0
  5  7  1  0  0  0  0
  5  8  1  0  0  0  0
  8  9  4  0  0  0  0
  9 10  1  0  0  0  0
  9 11  4  0  0  0  0
 11 12  1  0  0  0  0
 11 13  4  0  0  0  0
 13 14  1  0  0  0  0
 14 15  1  0  0  0  0
 13 16  4  0  0  0  0
 16 17  1  0  0  0  0
  8 18  4  0  0  0  0
 16 18  4  0  0  0  0
 18 19  1  0  0  0  0
  3 20  1  0  0  0  0
 20 21  2  0  0  0  0
 22 23  1  0  0  0  0
 22 24  1  0  0  0  0
 24 25  1  0  0  0  0
 24 26  1  0  0  0  0
 26 27  1  0  0  0  0
 26 28  1  0  0  0  0
 26 29  1  0  0  0  0
 29 30  4  0  0  0  0
 30 31  1  0  0  0  0
 30 32  4  0  0  0  0
 32 33  1  0  0  0  0
 32 34  4  0  0  0  0
 34 35  1  0  0  0  0
 34 36  4  0  0  0  0
 36 37  1  0  0  0  0
 29 38  4  0  0  0  0
 36 38  4  0  0  0  0
 38 39  1  0  0  0  0
 24 40  1  0  0  0  0
 40 41  2  0  0  0  0
 40 42  4  0  0  0  0
 42 43  1  0  0  0  0
 42 44  1  0  0  0  0
 44 45  1  0  0  0  0
 44 46  1  0  0  0  0
 46 47  1  0  0  0  0
 46 48  1  0  0  0  0
 46 49  1  0  0  0  0
 49 50  4  0  0  0  0
 49 51  4  0  0  0  0
 44 52  1  0  0  0  0
 52 53  2  0  0  0  0
 54 55  1  0  0  0  0
 54 56  1  0  0  0  0
 56 57  1  0  0  0  0
 56 58  1  0  0  0  0
 58 59  1  0  0  0  0
 58 60  1  0  0  0  0
 58 61  1  0  0  0  0
 61 62  1  0  0  0  0
 61 63  1  0  0  0  0
 61 64  1  0  0  0  0
 64 65  1  0  0  0  0
 64 66  1  0  0  0  0
 64 67  1  0  0  0  0
 67 68  1  0  0  0  0
 67 69  4  0  0  0  0
 69 70  4  0  0  0  0
 70 71  1  0  0  0  0
 70 72  1  0  0  0  0
 69 73  4  0  0  0  0
 73 74  1  0  0  0  0
 73 75  1  0  0  0  0
 56 76  1  0  0  0  0
 76 77  2  0  0  0  0
 78 79  1  0  0  0  0
 78 80  1  0  0  0  0
 80 81  1  0  0  0  0
 80 82  1  0  0  0  0
 82 83  1  0  0  0  0
 82 84  1  0  0  0  0
 82 85  1  0  0  0  0
 85 86  1  0  0  0  0
 85 87  1  0  0  0  0
 85 88  1  0  0  0  0
 88 89  1  0  0  0  0
 88 90  1  0  0  0  0
 88 91  1  0  0  0  0
 91 92  1  0  0  0  0
 91 93  1  0  0  0  0
 91 94  1  0  0  0  0
 94 95  1  0  0  0  0
 94 96  1  0  0  0  0
 94 97  1  0  0  0  0
 80 98  1  0  0  0  0
 98 99  2  0  0  0  0
100101  1  0  0  0  0
100102  1  0  0  0  0
102103  1  0  0  0  0
102104  1  0  0  0  0
104105  1  0  0  0  0
104106  1  0  0  0  0
104107  1  0  0  0  0
107108  4  0  0  0  0
108109  1  0  0  0  0
108110  4  0  0  0  0
110111  1  0  0  0  0
110112  4  0  0  0  0
112113  1  0  0  0  0
112114  4  0  0  0  0
114115  1  0  0  0  0
107116  4  0  0  0  0
114116  4  0  0  0  0
116117  1  0  0  0  0
102118  1  0  0  0  0
118119  2  0  0  0  0
118120  4  0  0  0  0
120121  1  0  0  0  0
120122  1  0  0  0  0
122123  1  0  0  0  0
122124  1  0  0  0  0
124125  1  0  0  0  0
124126  1  0  0  0  0
124127  1  0  0  0  0
127128  1  0  0  0  0
127129  1  0  0  0  0
127130  1  0  0  0  0
130131  1  0  0  0  0
130132  1  0  0  0  0
130133  1  0  0  0  0
133134  1  0  0  0  0
133135  1  0  0  0  0
133136  1  0  0  0  0
136137  1  0  0  0  0
136138  1  0  0  0  0
136139  1  0  0  0  0
122140  1  0  0  0  0
140141  2  0  0  0  0
140142  4  0  0  0  0
142143  1  0  0  0  0
142144  1  0  0  0  0
144145  1  0  0  0  0
144146  1  0  0  0  0
146147  1  0  0  0  0
146148  1  0  0  0  0
146149  1  0  0  0  0
149150  4  0  0  0  0
150151  1  0  0  0  0
150152  4  0  0  0  0
152153  1  0  0  0  0
152154  4  0  0  0  0
154155  1  0  0  0  0
154156  4  0  0  0  0
156157  1  0  0  0  0
149158  4  0  0  0  0
156158  4  0  0  0  0
158159  1  0  0  0  0
144160  1  0  0  0  0
160161  2  0  0  0  0
162163  1  0  0  0  0
162164  1  0  0  0  0
164165  1  0  0  0  0
164166  1  0  0  0  0
166167  1  0  0  0  0
166168  1  0  0  0  0
166169  1  0  0  0  0
169170  1  0  0  0  0
169171  1  0  0  0  0
169172  1  0  0  0  0
172173  4  0  0  0  0
172174  4  0  0  0  0
164175  1  0  0  0  0
175176  2  0  0  0  0
175177  4  0  0  0  0
177178  1  0  0  0  0
177179  1  0  0  0  0
179180  1  0  0  0  0
179181  1  0  0  0  0
181182  1  0  0  0  0
181183  1  0  0  0  0
183184  1  0  0  0  0
183185  1  0  0  0  0
183186  1  0  0  0  0
181187  1  0  0  0  0
187188  1  0  0  0  0
187189  1  0  0  0  0
187190  1  0  0  0  0
179191  1  0  0  0  0
191192  2  0  0  0  0
193194  1  0  0  0  0
193195  1  0  0  0  0
195196  1  0  0  0  0
195197  1  0  0  0  0
197198  1  0  0  0  0
197199  1  0  0  0  0
199200  1  0  0  0  0
199201  1  0  0  0  0
199202  1  0  0  0  0
197203  1  0  0  0  0
203204  1  0  0  0  0
203205  1  0  0  0  0
203206  1  0  0  0  0
206207  1  0  0  0  0
206208  1  0  0  0  0
206209  1  0  0  0  0
195210  1  0  0  0  0
210211  2  0  0  0  0
  1212  1  0  0  0  0
 20213  1  0  0  0  0
 22214  1  0  0  0  0
 52215  1  0  0  0  0
 54216  1  0  0  0  0
 76217  1  0  0  0  0
 78218  1  0  0  0  0
 98219  1  0  0  0  0
100220  1  0  0  0  0
160221  1  0  0  0  0
162222  1  0  0  0  0
191223  1  0  0  0  0
193224  1  0  0  0  0
210225  1  0  0  0  0
M  CHG  1   1   1
M  END
