 xtb: 6.7.1 (edcfbbe)
          01052609073D

 59 61  0     0  0            999 V2000
   18.9900    5.5800   60.3400 C   0  0  0  0  0  0  0  0  0  0  0  0
   18.6500    6.7100   61.0700 N   0  0  0  0  0  0  0  0  0  0  0  0
   17.9800    6.8400   62.2900 C   0  0  0  0  0  0  0  0  0  0  0  0
   15.9300    9.3400   64.0500 C   0  0  0  0  0  0  0  0  0  0  0  0
   18.3100    5.8500   63.3800 C   0  0  0  0  0  0  0  0  0  0  0  0
   19.5300    6.1500   64.2300 C   0  0  0  0  0  0  0  0  0  0  0  0
   19.8400    5.3200   65.3100 C   0  0  0  0  0  0  0  0  0  0  0  0
   21.0300    5.4300   66.0400 C   0  0  0  0  0  0  0  0  0  0  0  0
   21.9200    6.4600   65.6900 C   0  0  0  0  0  0  0  0  0  0  0  0
   21.6900    7.1700   64.5100 C   0  0  0  0  0  0  0  0  0  0  0  0
   20.5600    6.9500   63.7100 C   0  0  0  0  0  0  0  0  0  0  0  0
   16.7800    8.2300   63.7800 O   0  0  0  0  0  0  0  0  0  0  0  0
   17.3900    9.1100   61.7700 O   0  0  0  0  0  0  0  0  0  0  0  0
   17.3800    8.1700   62.5600 C   0  0  0  0  0  0  0  0  0  0  0  0
   14.5800    9.0500   63.3800 C   0  0  0  0  0  0  0  0  0  0  0  0
   17.7700    6.3200   57.6100 C   0  0  0  0  0  0  0  0  0  0  0  0
   18.6500    4.4600   60.6900 O   0  0  0  0  0  0  0  0  0  0  0  0
   18.0300    7.8000   57.2800 C   0  0  0  0  0  0  0  0  0  0  0  0
   19.0300    8.6500   58.5700 S   0  0  0  0  0  0  0  0  0  0  0  0
   20.2700    7.3100   58.8000 C   0  0  0  0  0  0  0  0  0  0  0  0
   19.7600    5.8900   59.0600 C   0  0  0  0  0  0  0  0  0  0  0  0
   18.9800    5.5500   57.8600 N   0  0  0  0  0  0  0  0  0  0  0  0
   18.8300    3.8700   57.6100 S   0  0  0  0  0  0  0  0  0  0  0  0
   19.2800    3.6300   55.8900 C   0  0  0  0  0  0  0  0  0  0  0  0
   20.3600    4.3600   55.4000 C   0  0  0  0  0  0  0  0  0  0  0  0
   20.7800    4.3000   54.0700 C   0  0  0  0  0  0  0  0  0  0  0  0
   20.1000    3.3700   53.2700 C   0  0  0  0  0  0  0  0  0  0  0  0
   19.1700    2.4700   53.8000 C   0  0  0  0  0  0  0  0  0  0  0  0
   18.6400    2.6900   55.0800 C   0  0  0  0  0  0  0  0  0  0  0  0
   17.4400    3.4800   57.8600 O   0  0  0  0  0  0  0  0  0  0  0  0
   19.9100    3.2400   58.3800 O   0  0  0  0  0  0  0  0  0  0  0  0
   20.5500    3.2200   51.8300 C   0  0  0  0  0  0  0  0  0  0  0  0
   18.8300    7.6100   60.6300 H   0  0  0  0  0  0  0  0  0  0  0  0
   15.7800    9.4100   65.1400 H   0  0  0  0  0  0  0  0  0  0  0  0
   16.3600   10.3000   63.7400 H   0  0  0  0  0  0  0  0  0  0  0  0
   17.5100    5.7200   64.1200 H   0  0  0  0  0  0  0  0  0  0  0  0
   18.3700    4.8100   63.0400 H   0  0  0  0  0  0  0  0  0  0  0  0
   19.1200    4.5900   65.6600 H   0  0  0  0  0  0  0  0  0  0  0  0
   21.1600    4.7900   66.9000 H   0  0  0  0  0  0  0  0  0  0  0  0
   22.8900    6.4500   66.1700 H   0  0  0  0  0  0  0  0  0  0  0  0
   22.3700    7.9000   64.0900 H   0  0  0  0  0  0  0  0  0  0  0  0
   20.3900    7.5400   62.8200 H   0  0  0  0  0  0  0  0  0  0  0  0
   13.9600    9.9000   63.7200 H   0  0  0  0  0  0  0  0  0  0  0  0
   14.1200    8.1200   63.7200 H   0  0  0  0  0  0  0  0  0  0  0  0
   14.7500    9.0600   62.3000 H   0  0  0  0  0  0  0  0  0  0  0  0
   16.9900    6.2500   58.3800 H   0  0  0  0  0  0  0  0  0  0  0  0
   17.2200    6.0200   56.7000 H   0  0  0  0  0  0  0  0  0  0  0  0
   18.5500    7.9400   56.3200 H   0  0  0  0  0  0  0  0  0  0  0  0
   17.0900    8.3500   57.1900 H   0  0  0  0  0  0  0  0  0  0  0  0
   20.7900    7.1700   57.8400 H   0  0  0  0  0  0  0  0  0  0  0  0
   20.9900    7.6100   59.5700 H   0  0  0  0  0  0  0  0  0  0  0  0
   20.6900    5.3100   59.0600 H   0  0  0  0  0  0  0  0  0  0  0  0
   20.8500    5.0400   56.1000 H   0  0  0  0  0  0  0  0  0  0  0  0
   21.5100    4.9900   53.6600 H   0  0  0  0  0  0  0  0  0  0  0  0
   18.8800    1.6900   53.1000 H   0  0  0  0  0  0  0  0  0  0  0  0
   17.8300    2.1000   55.4900 H   0  0  0  0  0  0  0  0  0  0  0  0
   21.2800    2.4100   51.7800 H   0  0  0  0  0  0  0  0  0  0  0  0
   21.1200    4.1100   51.5200 H   0  0  0  0  0  0  0  0  0  0  0  0
   19.8100    3.0600   51.0400 H   0  0  0  0  0  0  0  0  0  0  0  0
  1  2  1  0  0  0  0
  2  3  4  0  0  0  0
  3  5  1  0  0  0  0
  5  6  1  0  0  0  0
  6  7  4  0  0  0  0
  7  8  4  0  0  0  0
  8  9  4  0  0  0  0
  9 10  4  0  0  0  0
  6 11  4  0  0  0  0
 10 11  4  0  0  0  0
  4 12  1  0  0  0  0
  3 14  1  0  0  0  0
 12 14  1  0  0  0  0
 13 14  2  0  0  0  0
  4 15  1  0  0  0  0
  1 17  2  0  0  0  0
 16 18  1  0  0  0  0
 18 19  1  0  0  0  0
 19 20  1  0  0  0  0
  1 21  1  0  0  0  0
 20 21  1  0  0  0  0
 16 22  1  0  0  0  0
 21 22  1  0  0  0  0
 22 23  1  0  0  0  0
 23 24  1  0  0  0  0
 24 25  4  0  0  0  0
 25 26  4  0  0  0  0
 26 27  4  0  0  0  0
 27 28  4  0  0  0  0
 24 29  4  0  0  0  0
 28 29  4  0  0  0  0
 23 30  2  0  0  0  0
 23 31  2  0  0  0  0
 27 32  1  0  0  0  0
  2 33  1  0  0  0  0
  4 34  1  0  0  0  0
  4 35  1  0  0  0  0
  5 36  1  0  0  0  0
  5 37  1  0  0  0  0
  7 38  1  0  0  0  0
  8 39  1  0  0  0  0
  9 40  1  0  0  0  0
 10 41  1  0  0  0  0
 11 42  1  0  0  0  0
 15 43  1  0  0  0  0
 15 44  1  0  0  0  0
 15 45  1  0  0  0  0
 16 46  1  0  0  0  0
 16 47  1  0  0  0  0
 18 48  1  0  0  0  0
 18 49  1  0  0  0  0
 20 50  1  0  0  0  0
 20 51  1  0  0  0  0
 21 52  1  0  0  0  0
 25 53  1  0  0  0  0
 26 54  1  0  0  0  0
 28 55  1  0  0  0  0
 29 56  1  0  0  0  0
 32 57  1  0  0  0  0
 32 58  1  0  0  0  0
 32 59  1  0  0  0  0
M  CHG  1   1   1
M  END
