 xtb: 6.7.1 (edcfbbe)
          01052609063D

299297  0     0  0            999 V2000
   30.7700   25.7600   34.9100 N   0  0  0  0  0  0  0  0  0  0  0  0
   30.9000   25.2400   35.7700 H   0  0  0  0  0  0  0  0  0  0  0  0
   31.9100   26.2700   34.1800 C   0  0  0  0  0  0  0  0  0  0  0  0
   31.6500   26.2200   33.1200 H   0  0  0  0  0  0  0  0  0  0  0  0
   32.1500   27.7300   34.5500 C   0  0  0  0  0  0  0  0  0  0  0  0
   31.2100   28.2700   34.5600 H   0  0  0  0  0  0  0  0  0  0  0  0
   32.8200   28.2400   33.8600 H   0  0  0  0  0  0  0  0  0  0  0  0
   32.9000   27.9300   35.8400 C   0  0  0  0  0  0  0  0  0  0  0  0
   34.3000   27.8500   35.7800 C   0  0  0  0  0  0  0  0  0  0  0  0
   34.8700   27.7600   34.8700 H   0  0  0  0  0  0  0  0  0  0  0  0
   35.0300   28.1000   36.9500 C   0  0  0  0  0  0  0  0  0  0  0  0
   36.1100   28.1300   36.9300 H   0  0  0  0  0  0  0  0  0  0  0  0
   34.3600   28.2100   38.1900 C   0  0  0  0  0  0  0  0  0  0  0  0
   35.0900   28.2700   39.3400 O   0  0  0  0  0  0  0  0  0  0  0  0
   35.9600   27.9400   39.0700 H   0  0  0  0  0  0  0  0  0  0  0  0
   32.9600   28.3100   38.2100 C   0  0  0  0  0  0  0  0  0  0  0  0
   32.4800   28.5400   39.1600 H   0  0  0  0  0  0  0  0  0  0  0  0
   32.2100   28.1400   37.0400 C   0  0  0  0  0  0  0  0  0  0  0  0
   31.1300   28.1400   37.0900 H   0  0  0  0  0  0  0  0  0  0  0  0
   33.1300   25.4100   34.4500 C   0  0  0  0  0  0  0  0  0  0  0  0
   33.3300   24.8300   35.5300 O   0  0  0  0  0  0  0  0  0  0  0  0
   42.4900   24.0500   34.1500 N   0  0  0  0  0  0  0  0  0  0  0  0
   41.7600   24.4300   33.5800 H   0  0  0  0  0  0  0  0  0  0  0  0
   42.9100   24.8600   35.2800 C   0  0  0  0  0  0  0  0  0  0  0  0
   43.7600   24.3600   35.7500 H   0  0  0  0  0  0  0  0  0  0  0  0
   43.4200   26.2500   34.9200 C   0  0  0  0  0  0  0  0  0  0  0  0
   44.1400   26.0600   34.1300 H   0  0  0  0  0  0  0  0  0  0  0  0
   44.0700   26.6600   35.7000 H   0  0  0  0  0  0  0  0  0  0  0  0
   42.4100   27.2500   34.4000 C   0  0  0  0  0  0  0  0  0  0  0  0
   42.6700   27.8800   33.1800 C   0  0  0  0  0  0  0  0  0  0  0  0
   43.4200   27.3800   32.5700 H   0  0  0  0  0  0  0  0  0  0  0  0
   41.9100   28.9400   32.6800 C   0  0  0  0  0  0  0  0  0  0  0  0
   42.1900   29.3900   31.7400 H   0  0  0  0  0  0  0  0  0  0  0  0
   40.9000   29.4500   33.5000 C   0  0  0  0  0  0  0  0  0  0  0  0
   40.3300   30.3000   33.1500 H   0  0  0  0  0  0  0  0  0  0  0  0
   40.6100   28.9100   34.7600 C   0  0  0  0  0  0  0  0  0  0  0  0
   39.8700   29.3600   35.4100 H   0  0  0  0  0  0  0  0  0  0  0  0
   41.4800   27.9200   35.2100 C   0  0  0  0  0  0  0  0  0  0  0  0
   41.4600   27.6600   36.2600 H   0  0  0  0  0  0  0  0  0  0  0  0
   41.8600   24.8300   36.3800 C   0  0  0  0  0  0  0  0  0  0  0  0
   42.2100   24.8200   37.5600 O   0  0  0  0  0  0  0  0  0  0  0  0
   40.5600   24.9600   36.1000 N   0  0  0  0  0  0  0  0  0  0  0  0
   40.3600   25.0900   35.1100 H   0  0  0  0  0  0  0  0  0  0  0  0
   39.5000   25.0000   37.0800 C   0  0  0  0  0  0  0  0  0  0  0  0
   39.9200   24.4600   37.9200 H   0  0  0  0  0  0  0  0  0  0  0  0
   39.1400   26.3900   37.6100 C   0  0  0  0  0  0  0  0  0  0  0  0
   38.7100   27.0500   36.8500 H   0  0  0  0  0  0  0  0  0  0  0  0
   40.0600   26.9400   37.8400 H   0  0  0  0  0  0  0  0  0  0  0  0
   38.3200   26.2600   38.8800 C   0  0  0  0  0  0  0  0  0  0  0  0
   37.4100   27.0900   39.1300 O   0  0  0  0  0  0  0  0  0  0  0  0
   38.5900   25.3400   39.6800 O   0  0  0  0  0  0  0  0  0  0  0  0
   38.2300   24.3000   36.6200 C   0  0  0  0  0  0  0  0  0  0  0  0
   37.9200   24.2600   35.4300 O   0  0  0  0  0  0  0  0  0  0  0  0
   27.9200   27.8000   40.2700 N   0  0  0  0  0  0  0  0  0  0  0  0
   27.6200   27.7000   39.3100 H   0  0  0  0  0  0  0  0  0  0  0  0
   28.4400   29.1100   40.5900 C   0  0  0  0  0  0  0  0  0  0  0  0
   28.7200   29.1200   41.6500 H   0  0  0  0  0  0  0  0  0  0  0  0
   29.7400   29.2500   39.8100 C   0  0  0  0  0  0  0  0  0  0  0  0
   29.6200   29.3000   38.7300 H   0  0  0  0  0  0  0  0  0  0  0  0
   30.3200   28.3500   40.0100 H   0  0  0  0  0  0  0  0  0  0  0  0
   30.6100   30.4200   40.2200 C   0  0  0  0  0  0  0  0  0  0  0  0
   30.5200   31.6100   39.4800 C   0  0  0  0  0  0  0  0  0  0  0  0
   29.7900   31.6100   38.6800 H   0  0  0  0  0  0  0  0  0  0  0  0
   31.2700   32.7300   39.8300 C   0  0  0  0  0  0  0  0  0  0  0  0
   31.2700   33.5800   39.1600 H   0  0  0  0  0  0  0  0  0  0  0  0
   32.0600   32.6600   40.9900 C   0  0  0  0  0  0  0  0  0  0  0  0
   32.7600   33.4200   41.3100 H   0  0  0  0  0  0  0  0  0  0  0  0
   32.0600   31.4800   41.7400 C   0  0  0  0  0  0  0  0  0  0  0  0
   32.5000   31.3200   42.7100 H   0  0  0  0  0  0  0  0  0  0  0  0
   31.3300   30.3300   41.4100 C   0  0  0  0  0  0  0  0  0  0  0  0
   31.4400   29.4500   42.0300 H   0  0  0  0  0  0  0  0  0  0  0  0
   27.5400   30.3200   40.3500 C   0  0  0  0  0  0  0  0  0  0  0  0
   26.8800   30.3900   39.3200 O   0  0  0  0  0  0  0  0  0  0  0  0
   31.0100   43.5700   38.6300 N   0  0  0  0  0  0  0  0  0  0  0  0
   30.4300   43.1500   37.9200 H   0  0  0  0  0  0  0  0  0  0  0  0
   32.4500   43.6200   38.4500 C   0  0  0  0  0  0  0  0  0  0  0  0
   32.6300   43.2100   37.4600 H   0  0  0  0  0  0  0  0  0  0  0  0
   32.8700   45.0800   38.3000 C   0  0  0  0  0  0  0  0  0  0  0  0
   33.9500   45.0900   38.2300 H   0  0  0  0  0  0  0  0  0  0  0  0
   32.6600   45.5800   39.2400 H   0  0  0  0  0  0  0  0  0  0  0  0
   32.3600   45.8800   37.1100 C   0  0  0  0  0  0  0  0  0  0  0  0
   31.2700   45.7800   37.1000 H   0  0  0  0  0  0  0  0  0  0  0  0
   32.7300   45.4400   36.1900 H   0  0  0  0  0  0  0  0  0  0  0  0
   32.7900   47.3400   37.0700 C   0  0  0  0  0  0  0  0  0  0  0  0
   31.9800   48.2400   36.8700 O   0  0  0  0  0  0  0  0  0  0  0  0
   34.0700   47.6400   37.2900 N   0  0  0  0  0  0  0  0  0  0  0  0
   34.7600   46.9400   37.5300 H   0  0  0  0  0  0  0  0  0  0  0  0
   34.3000   48.6000   37.0900 H   0  0  0  0  0  0  0  0  0  0  0  0
   33.2900   42.6900   39.3100 C   0  0  0  0  0  0  0  0  0  0  0  0
   34.4600   42.9300   39.5900 O   0  0  0  0  0  0  0  0  0  0  0  0
   32.6900   41.5900   39.7800 N   0  0  0  0  0  0  0  0  0  0  0  0
   31.7000   41.5900   39.5900 H   0  0  0  0  0  0  0  0  0  0  0  0
   33.3400   40.5700   40.5700 C   0  0  0  0  0  0  0  0  0  0  0  0
   34.1200   41.1000   41.1200 H   0  0  0  0  0  0  0  0  0  0  0  0
   32.3500   40.1000   41.6500 C   0  0  0  0  0  0  0  0  0  0  0  0
   32.1500   41.0000   42.2300 H   0  0  0  0  0  0  0  0  0  0  0  0
   32.7300   39.3100   42.2900 H   0  0  0  0  0  0  0  0  0  0  0  0
   31.1100   39.3700   41.1500 C   0  0  0  0  0  0  0  0  0  0  0  0
   31.3600   38.5100   40.5300 H   0  0  0  0  0  0  0  0  0  0  0  0
   30.4600   40.0200   40.5700 H   0  0  0  0  0  0  0  0  0  0  0  0
   30.2400   38.9300   42.3200 C   0  0  0  0  0  0  0  0  0  0  0  0
   30.8500   38.4900   43.3100 O   0  0  0  0  0  0  0  0  0  0  0  0
   29.0100   39.1500   42.2900 O   0  0  0  0  0  0  0  0  0  0  0  0
   34.0100   39.4100   39.8500 C   0  0  0  0  0  0  0  0  0  0  0  0
   34.3500   38.4400   40.5100 O   0  0  0  0  0  0  0  0  0  0  0  0
   34.1300   39.4900   38.5200 N   0  0  0  0  0  0  0  0  0  0  0  0
   33.6000   40.2000   38.0300 H   0  0  0  0  0  0  0  0  0  0  0  0
   34.7900   38.5500   37.6300 C   0  0  0  0  0  0  0  0  0  0  0  0
   35.6300   38.0800   38.1300 H   0  0  0  0  0  0  0  0  0  0  0  0
   33.8300   37.4900   37.1000 C   0  0  0  0  0  0  0  0  0  0  0  0
   34.3400   36.8800   36.3500 H   0  0  0  0  0  0  0  0  0  0  0  0
   33.4200   36.5500   38.2300 C   0  0  0  0  0  0  0  0  0  0  0  0
   34.3300   36.2400   38.7400 H   0  0  0  0  0  0  0  0  0  0  0  0
   32.7400   37.0500   38.9300 H   0  0  0  0  0  0  0  0  0  0  0  0
   32.8500   35.7100   37.8300 H   0  0  0  0  0  0  0  0  0  0  0  0
   32.6500   38.1800   36.4100 C   0  0  0  0  0  0  0  0  0  0  0  0
   33.0900   38.7500   35.6000 H   0  0  0  0  0  0  0  0  0  0  0  0
   32.0500   37.4700   35.8400 H   0  0  0  0  0  0  0  0  0  0  0  0
   32.1000   38.7900   37.1100 H   0  0  0  0  0  0  0  0  0  0  0  0
   35.3800   39.3600   36.4800 C   0  0  0  0  0  0  0  0  0  0  0  0
   35.1100   40.5500   36.3900 O   0  0  0  0  0  0  0  0  0  0  0  0
   36.1500   38.7700   35.5700 N   0  0  0  0  0  0  0  0  0  0  0  0
   36.3300   37.7900   35.7700 H   0  0  0  0  0  0  0  0  0  0  0  0
   36.8800   39.4100   34.5000 C   0  0  0  0  0  0  0  0  0  0  0  0
   37.4800   40.1800   34.9700 H   0  0  0  0  0  0  0  0  0  0  0  0
   37.7900   38.4400   33.7600 C   0  0  0  0  0  0  0  0  0  0  0  0
   38.2400   38.9900   32.9300 H   0  0  0  0  0  0  0  0  0  0  0  0
   39.0000   38.0700   34.6200 C   0  0  0  0  0  0  0  0  0  0  0  0
   38.6800   37.6200   35.5600 H   0  0  0  0  0  0  0  0  0  0  0  0
   39.7500   37.4600   34.1300 H   0  0  0  0  0  0  0  0  0  0  0  0
   39.5300   39.0100   34.8100 H   0  0  0  0  0  0  0  0  0  0  0  0
   37.0500   37.2500   33.1500 C   0  0  0  0  0  0  0  0  0  0  0  0
   36.4600   37.6600   32.3300 H   0  0  0  0  0  0  0  0  0  0  0  0
   36.4300   36.8200   33.9300 H   0  0  0  0  0  0  0  0  0  0  0  0
   37.9800   36.1700   32.5900 C   0  0  0  0  0  0  0  0  0  0  0  0
   37.3800   35.5700   31.9100 H   0  0  0  0  0  0  0  0  0  0  0  0
   38.7900   36.6500   32.0300 H   0  0  0  0  0  0  0  0  0  0  0  0
   38.4400   35.5200   33.3400 H   0  0  0  0  0  0  0  0  0  0  0  0
   35.8800   40.0100   33.5200 C   0  0  0  0  0  0  0  0  0  0  0  0
   34.7400   39.5900   33.3100 O   0  0  0  0  0  0  0  0  0  0  0  0
   33.8800   37.7700   31.3700 N   0  0  0  0  0  0  0  0  0  0  0  0
   34.3900   38.3400   32.0300 H   0  0  0  0  0  0  0  0  0  0  0  0
   32.6300   37.2400   31.8900 C   0  0  0  0  0  0  0  0  0  0  0  0
   32.2800   36.3800   31.3200 H   0  0  0  0  0  0  0  0  0  0  0  0
   32.9100   36.5800   33.2400 C   0  0  0  0  0  0  0  0  0  0  0  0
   31.9300   36.4100   33.6800 H   0  0  0  0  0  0  0  0  0  0  0  0
   33.4400   37.2400   33.9200 H   0  0  0  0  0  0  0  0  0  0  0  0
   33.4300   35.1800   33.2600 C   0  0  0  0  0  0  0  0  0  0  0  0
   34.4700   34.6900   32.5400 C   0  0  0  0  0  0  0  0  0  0  0  0
   35.0300   35.3300   31.8800 H   0  0  0  0  0  0  0  0  0  0  0  0
   34.6500   33.3500   32.8100 N   0  0  0  0  0  0  0  0  0  0  0  0
   35.3100   32.7200   32.3800 H   0  0  0  0  0  0  0  0  0  0  0  0
   33.8200   32.9200   33.8300 C   0  0  0  0  0  0  0  0  0  0  0  0
   33.7200   31.7600   34.6000 C   0  0  0  0  0  0  0  0  0  0  0  0
   34.3300   30.8900   34.4000 H   0  0  0  0  0  0  0  0  0  0  0  0
   32.7600   31.7800   35.6200 C   0  0  0  0  0  0  0  0  0  0  0  0
   32.6300   30.9100   36.2500 H   0  0  0  0  0  0  0  0  0  0  0  0
   31.9400   32.8700   35.9400 C   0  0  0  0  0  0  0  0  0  0  0  0
   31.1700   32.7100   36.6800 H   0  0  0  0  0  0  0  0  0  0  0  0
   32.0000   33.9600   35.0700 C   0  0  0  0  0  0  0  0  0  0  0  0
   31.4300   34.8200   35.3900 H   0  0  0  0  0  0  0  0  0  0  0  0
   33.0200   34.0600   34.1100 C   0  0  0  0  0  0  0  0  0  0  0  0
   31.4600   38.2000   31.9600 C   0  0  0  0  0  0  0  0  0  0  0  0
   30.3400   37.8700   31.5600 O   0  0  0  0  0  0  0  0  0  0  0  0
   43.1900   38.6600   32.6400 N   0  0  0  0  0  0  0  0  0  0  0  0
   43.3300   37.8400   32.0700 H   0  0  0  0  0  0  0  0  0  0  0  0
   44.1500   39.0000   33.6700 C   0  0  0  0  0  0  0  0  0  0  0  0
   43.6500   39.5300   34.4900 H   0  0  0  0  0  0  0  0  0  0  0  0
   44.7500   37.7500   34.3100 C   0  0  0  0  0  0  0  0  0  0  0  0
   45.6000   38.0300   34.9300 H   0  0  0  0  0  0  0  0  0  0  0  0
   45.1300   37.1200   33.5000 H   0  0  0  0  0  0  0  0  0  0  0  0
   43.7100   37.1100   35.1900 C   0  0  0  0  0  0  0  0  0  0  0  0
   43.0200   35.9600   34.7800 C   0  0  0  0  0  0  0  0  0  0  0  0
   43.3900   35.4700   33.8900 H   0  0  0  0  0  0  0  0  0  0  0  0
   41.9000   35.5100   35.4900 C   0  0  0  0  0  0  0  0  0  0  0  0
   41.1300   34.8700   35.0900 H   0  0  0  0  0  0  0  0  0  0  0  0
   41.5600   36.1700   36.6800 C   0  0  0  0  0  0  0  0  0  0  0  0
   40.3600   35.8200   37.2200 O   0  0  0  0  0  0  0  0  0  0  0  0
   39.9600   36.5800   37.6400 H   0  0  0  0  0  0  0  0  0  0  0  0
   42.2400   37.3500   37.0800 C   0  0  0  0  0  0  0  0  0  0  0  0
   42.0400   37.9500   37.9500 H   0  0  0  0  0  0  0  0  0  0  0  0
   43.3600   37.7800   36.3700 C   0  0  0  0  0  0  0  0  0  0  0  0
   43.9300   38.6100   36.7600 H   0  0  0  0  0  0  0  0  0  0  0  0
   45.3000   39.8300   33.1300 C   0  0  0  0  0  0  0  0  0  0  0  0
   46.0500   40.4000   33.9300 O   0  0  0  0  0  0  0  0  0  0  0  0
   47.4700   36.2200   37.2900 N   0  0  0  0  0  0  0  0  0  0  0  0
   48.0500   35.4500   37.0000 H   0  0  0  0  0  0  0  0  0  0  0  0
   46.7800   35.9000   38.5200 C   0  0  0  0  0  0  0  0  0  0  0  0
   46.6000   36.8500   39.0300 H   0  0  0  0  0  0  0  0  0  0  0  0
   45.3800   35.3300   38.2900 C   0  0  0  0  0  0  0  0  0  0  0  0
   45.5000   34.2600   38.1300 H   0  0  0  0  0  0  0  0  0  0  0  0
   44.8800   35.7700   37.4200 H   0  0  0  0  0  0  0  0  0  0  0  0
   44.5800   35.6100   39.5300 C   0  0  0  0  0  0  0  0  0  0  0  0
   44.4200   36.8700   40.1200 N   0  0  0  0  0  0  0  0  0  0  0  0
   43.8500   36.6300   41.3000 C   0  0  0  0  0  0  0  0  0  0  0  0
   43.6300   37.4200   42.0100 H   0  0  0  0  0  0  0  0  0  0  0  0
   43.6700   35.3100   41.5000 N   0  0  0  0  0  0  0  0  0  0  0  0
   43.4700   34.8500   42.3700 H   0  0  0  0  0  0  0  0  0  0  0  0
   44.1300   34.6400   40.3900 C   0  0  0  0  0  0  0  0  0  0  0  0
   44.2400   33.5700   40.2400 H   0  0  0  0  0  0  0  0  0  0  0  0
   47.5600   34.9700   39.4500 C   0  0  0  0  0  0  0  0  0  0  0  0
   47.7800   33.8800   38.9400 O   0  0  0  0  0  0  0  0  0  0  0  0
   48.0000   30.6400   39.3700 N   0  0  0  0  0  0  0  0  0  0  0  0
   48.2900   31.6000   39.2400 H   0  0  0  0  0  0  0  0  0  0  0  0
   47.2300   29.9900   38.3200 C   0  0  0  0  0  0  0  0  0  0  0  0
   47.6500   28.9900   38.1600 H   0  0  0  0  0  0  0  0  0  0  0  0
   45.7700   29.8900   38.7500 C   0  0  0  0  0  0  0  0  0  0  0  0
   45.8000   29.5200   39.7800 H   0  0  0  0  0  0  0  0  0  0  0  0
   45.1500   31.2700   38.9700 C   0  0  0  0  0  0  0  0  0  0  0  0
   44.2900   31.0300   39.5900 H   0  0  0  0  0  0  0  0  0  0  0  0
   45.8100   31.9300   39.5200 H   0  0  0  0  0  0  0  0  0  0  0  0
   44.9000   31.8000   38.0500 H   0  0  0  0  0  0  0  0  0  0  0  0
   44.9600   29.0200   37.8000 C   0  0  0  0  0  0  0  0  0  0  0  0
   45.7200   28.3200   37.4600 H   0  0  0  0  0  0  0  0  0  0  0  0
   44.6700   29.6100   36.9300 H   0  0  0  0  0  0  0  0  0  0  0  0
   43.8400   28.2400   38.4900 C   0  0  0  0  0  0  0  0  0  0  0  0
   43.3000   27.6000   37.8000 H   0  0  0  0  0  0  0  0  0  0  0  0
   44.2100   27.5400   39.2400 H   0  0  0  0  0  0  0  0  0  0  0  0
   43.3000   28.9900   39.0700 H   0  0  0  0  0  0  0  0  0  0  0  0
   47.4600   30.5300   36.9200 C   0  0  0  0  0  0  0  0  0  0  0  0
   47.6000   29.7400   35.9900 O   0  0  0  0  0  0  0  0  0  0  0  0
   47.4000   31.8600   36.7600 N   0  0  0  0  0  0  0  0  0  0  0  0
   47.2900   32.4000   37.6000 H   0  0  0  0  0  0  0  0  0  0  0  0
   47.3700   32.4400   35.4300 C   0  0  0  0  0  0  0  0  0  0  0  0
   47.5200   31.5900   34.7700 H   0  0  0  0  0  0  0  0  0  0  0  0
   46.0400   33.0700   35.0300 C   0  0  0  0  0  0  0  0  0  0  0  0
   45.7200   33.8600   35.7100 H   0  0  0  0  0  0  0  0  0  0  0  0
   46.1600   33.8200   33.7100 C   0  0  0  0  0  0  0  0  0  0  0  0
   46.4000   33.0800   32.9500 H   0  0  0  0  0  0  0  0  0  0  0  0
   45.2000   34.1700   33.3300 H   0  0  0  0  0  0  0  0  0  0  0  0
   46.8200   34.6900   33.7900 H   0  0  0  0  0  0  0  0  0  0  0  0
   44.9400   32.0300   34.9000 C   0  0  0  0  0  0  0  0  0  0  0  0
   45.1500   31.1500   35.5100 H   0  0  0  0  0  0  0  0  0  0  0  0
   44.8400   31.7900   33.8400 H   0  0  0  0  0  0  0  0  0  0  0  0
   43.5400   32.5000   35.3100 C   0  0  0  0  0  0  0  0  0  0  0  0
   43.4900   32.9700   36.2900 H   0  0  0  0  0  0  0  0  0  0  0  0
   43.1100   33.0600   34.4800 H   0  0  0  0  0  0  0  0  0  0  0  0
   42.9000   31.6200   35.2200 H   0  0  0  0  0  0  0  0  0  0  0  0
   48.5900   33.3000   35.1300 C   0  0  0  0  0  0  0  0  0  0  0  0
   48.9200   34.2500   35.8400 O   0  0  0  0  0  0  0  0  0  0  0  0
   42.5900   33.0700   27.8400 N   0  0  0  0  0  0  0  0  0  0  0  0
   42.0700   33.8400   27.4400 H   0  0  0  0  0  0  0  0  0  0  0  0
   41.9000   32.0000   28.5300 C   0  0  0  0  0  0  0  0  0  0  0  0
   42.5600   31.1400   28.6800 H   0  0  0  0  0  0  0  0  0  0  0  0
   41.3200   32.5000   29.8400 C   0  0  0  0  0  0  0  0  0  0  0  0
   40.9300   31.6700   30.4300 H   0  0  0  0  0  0  0  0  0  0  0  0
   40.4300   33.1000   29.6200 H   0  0  0  0  0  0  0  0  0  0  0  0
   42.2900   33.3100   30.7000 C   0  0  0  0  0  0  0  0  0  0  0  0
   42.6900   34.1400   30.1300 H   0  0  0  0  0  0  0  0  0  0  0  0
   41.5700   33.9500   31.8800 C   0  0  0  0  0  0  0  0  0  0  0  0
   40.8500   34.6700   31.4900 H   0  0  0  0  0  0  0  0  0  0  0  0
   41.1500   33.1600   32.5100 H   0  0  0  0  0  0  0  0  0  0  0  0
   42.2000   34.5300   32.5500 H   0  0  0  0  0  0  0  0  0  0  0  0
   43.3400   32.3800   31.2900 C   0  0  0  0  0  0  0  0  0  0  0  0
   43.9300   32.0100   30.4400 H   0  0  0  0  0  0  0  0  0  0  0  0
   44.0300   33.0100   31.8500 H   0  0  0  0  0  0  0  0  0  0  0  0
   42.9000   31.5700   31.8700 H   0  0  0  0  0  0  0  0  0  0  0  0
   40.7600   31.5100   27.6500 C   0  0  0  0  0  0  0  0  0  0  0  0
   40.1300   32.2600   26.9100 O   0  0  0  0  0  0  0  0  0  0  0  0
   37.1900   29.0900   28.2700 N   0  0  0  0  0  0  0  0  0  0  0  0
   36.8500   29.6000   27.4700 H   0  0  0  0  0  0  0  0  0  0  0  0
   36.1400   28.5900   29.1300 C   0  0  0  0  0  0  0  0  0  0  0  0
   36.6900   27.9100   29.7900 H   0  0  0  0  0  0  0  0  0  0  0  0
   35.5500   29.6500   30.0600 C   0  0  0  0  0  0  0  0  0  0  0  0
   34.7700   29.1900   30.6600 H   0  0  0  0  0  0  0  0  0  0  0  0
   35.0800   30.4600   29.4900 H   0  0  0  0  0  0  0  0  0  0  0  0
   36.5100   30.3100   31.0200 C   0  0  0  0  0  0  0  0  0  0  0  0
   37.2400   31.4300   30.6000 C   0  0  0  0  0  0  0  0  0  0  0  0
   37.2700   31.7800   29.5800 H   0  0  0  0  0  0  0  0  0  0  0  0
   38.0400   32.1100   31.5300 C   0  0  0  0  0  0  0  0  0  0  0  0
   38.5600   33.0100   31.2400 H   0  0  0  0  0  0  0  0  0  0  0  0
   38.0700   31.7000   32.8700 C   0  0  0  0  0  0  0  0  0  0  0  0
   38.7100   32.2700   33.5300 H   0  0  0  0  0  0  0  0  0  0  0  0
   37.3900   30.5600   33.3100 C   0  0  0  0  0  0  0  0  0  0  0  0
   37.5000   30.2400   34.3300 H   0  0  0  0  0  0  0  0  0  0  0  0
   36.6000   29.9000   32.3600 C   0  0  0  0  0  0  0  0  0  0  0  0
   36.1000   28.9900   32.6500 H   0  0  0  0  0  0  0  0  0  0  0  0
   34.9900   27.8100   28.5000 C   0  0  0  0  0  0  0  0  0  0  0  0
   34.4700   28.2700   27.4900 O   0  0  0  0  0  0  0  0  0  0  0  0
   29.8000   25.8890   34.6600 H   0  0  0  0  0  0  0  0  0  0  0  0
   33.8370   25.3360   33.6110 H   0  0  0  0  0  0  0  0  0  0  0  0
   42.7480   23.0950   33.9450 H   0  0  0  0  0  0  0  0  0  0  0  0
   37.6040   23.8060   37.3780 H   0  0  0  0  0  0  0  0  0  0  0  0
   27.8440   27.0330   40.9230 H   0  0  0  0  0  0  0  0  0  0  0  0
   27.5650   31.0930   41.1320 H   0  0  0  0  0  0  0  0  0  0  0  0
   30.5850   43.8280   39.5090 H   0  0  0  0  0  0  0  0  0  0  0  0
   36.2430   40.8440   32.9010 H   0  0  0  0  0  0  0  0  0  0  0  0
   34.0390   37.8080   30.3730 H   0  0  0  0  0  0  0  0  0  0  0  0
   31.7160   39.2150   32.2980 H   0  0  0  0  0  0  0  0  0  0  0  0
   42.3710   39.2090   32.4220 H   0  0  0  0  0  0  0  0  0  0  0  0
   45.4400   39.9450   32.0450 H   0  0  0  0  0  0  0  0  0  0  0  0
   47.5000   37.1330   36.8600 H   0  0  0  0  0  0  0  0  0  0  0  0
   47.8480   35.2260   40.4800 H   0  0  0  0  0  0  0  0  0  0  0  0
   48.3190   30.1310   40.1820 H   0  0  0  0  0  0  0  0  0  0  0  0
   49.2970   33.0290   34.3320 H   0  0  0  0  0  0  0  0  0  0  0  0
   43.5300   32.9260   27.4990 H   0  0  0  0  0  0  0  0  0  0  0  0
   40.5200   30.4440   27.7740 H   0  0  0  0  0  0  0  0  0  0  0  0
   38.1920   28.9760   28.3310 H   0  0  0  0  0  0  0  0  0  0  0  0
   34.6620   26.8660   28.9600 H   0  0  0  0  0  0  0  0  0  0  0  0
  1  2  1  0  0  0  0
  1  3  1  0  0  0  0
  3  4  1  0  0  0  0
  3  5  1  0  0  0  0
  5  6  1  0  0  0  0
  5  7  1  0  0  0  0
  5  8  1  0  0  0  0
  8  9  4  0  0  0  0
  9 10  1  0  0  0  0
  9 11  4  0  0  0  0
 11 12  1  0  0  0  0
 11 13  4  0  0  0  0
 13 14  1  0  0  0  0
 14 15  1  0  0  0  0
 13 16  4  0  0  0  0
 16 17  1  0  0  0  0
  8 18  4  0  0  0  0
 16 18  4  0  0  0  0
 18 19  1  0  0  0  0
  3 20  1  0  0  0  0
 20 21  2  0  0  0  0
 22 23  1  0  0  0  0
 22 24  1  0  0  0  0
 24 25  1  0  0  0  0
 24 26  1  0  0  0  0
 26 27  1  0  0  0  0
 26 28  1  0  0  0  0
 26 29  1  0  0  0  0
 29 30  4  0  0  0  0
 30 31  1  0  0  0  0
 30 32  4  0  0  0  0
 32 33  1  0  0  0  0
 32 34  4  0  0  0  0
 34 35  1  0  0  0  0
 34 36  4  0  0  0  0
 36 37  1  0  0  0  0
 29 38  4  0  0  0  0
 36 38  4  0  0  0  0
 38 39  1  0  0  0  0
 24 40  1  0  0  0  0
 40 41  2  0  0  0  0
 40 42  4  0  0  0  0
 42 43  1  0  0  0  0
 42 44  1  0  0  0  0
 44 45  1  0  0  0  0
 44 46  1  0  0  0  0
 46 47  1  0  0  0  0
 46 48  1  0  0  0  0
 46 49  1  0  0  0  0
 49 50  4  0  0  0  0
 49 51  2  0  0  0  0
 44 52  1  0  0  0  0
 52 53  2  0  0  0  0
 54 55  1  0  0  0  0
 54 56  1  0  0  0  0
 56 57  1  0  0  0  0
 56 58  1  0  0  0  0
 58 59  1  0  0  0  0
 58 60  1  0  0  0  0
 58 61  1  0  0  0  0
 61 62  4  0  0  0  0
 62 63  1  0  0  0  0
 62 64  4  0  0  0  0
 64 65  1  0  0  0  0
 64 66  4  0  0  0  0
 66 67  1  0  0  0  0
 66 68  4  0  0  0  0
 68 69  1  0  0  0  0
 61 70  4  0  0  0  0
 68 70  4  0  0  0  0
 70 71  1  0  0  0  0
 56 72  1  0  0  0  0
 72 73  2  0  0  0  0
 74 75  1  0  0  0  0
 74 76  1  0  0  0  0
 76 77  1  0  0  0  0
 76 78  1  0  0  0  0
 78 79  1  0  0  0  0
 78 80  1  0  0  0  0
 78 81  1  0  0  0  0
 81 82  1  0  0  0  0
 81 83  1  0  0  0  0
 81 84  1  0  0  0  0
 84 85  2  0  0  0  0
 84 86  4  0  0  0  0
 86 87  1  0  0  0  0
 86 88  1  0  0  0  0
 76 89  1  0  0  0  0
 89 90  2  0  0  0  0
 89 91  4  0  0  0  0
 91 92  1  0  0  0  0
 91 93  1  0  0  0  0
 93 94  1  0  0  0  0
 93 95  1  0  0  0  0
 95 96  1  0  0  0  0
 95 97  1  0  0  0  0
 95 98  1  0  0  0  0
 98 99  1  0  0  0  0
 98100  1  0  0  0  0
 98101  1  0  0  0  0
101102  4  0  0  0  0
101103  4  0  0  0  0
 93104  1  0  0  0  0
104105  2  0  0  0  0
104106  4  0  0  0  0
106107  1  0  0  0  0
106108  1  0  0  0  0
108109  1  0  0  0  0
108110  1  0  0  0  0
110111  1  0  0  0  0
110112  1  0  0  0  0
112113  1  0  0  0  0
112114  1  0  0  0  0
112115  1  0  0  0  0
110116  1  0  0  0  0
116117  1  0  0  0  0
116118  1  0  0  0  0
116119  1  0  0  0  0
108120  1  0  0  0  0
120121  2  0  0  0  0
120122  4  0  0  0  0
122123  1  0  0  0  0
122124  1  0  0  0  0
124125  1  0  0  0  0
124126  1  0  0  0  0
126127  1  0  0  0  0
126128  1  0  0  0  0
128129  1  0  0  0  0
128130  1  0  0  0  0
128131  1  0  0  0  0
126132  1  0  0  0  0
132133  1  0  0  0  0
132134  1  0  0  0  0
132135  1  0  0  0  0
135136  1  0  0  0  0
135137  1  0  0  0  0
135138  1  0  0  0  0
124139  1  0  0  0  0
139140  2  0  0  0  0
141142  1  0  0  0  0
141143  1  0  0  0  0
143144  1  0  0  0  0
143145  1  0  0  0  0
145146  1  0  0  0  0
145147  1  0  0  0  0
145148  1  0  0  0  0
148149  2  0  0  0  0
149150  1  0  0  0  0
149151  1  0  0  0  0
151152  1  0  0  0  0
151153  1  0  0  0  0
153154  4  0  0  0  0
154155  1  0  0  0  0
154156  4  0  0  0  0
156157  1  0  0  0  0
156158  4  0  0  0  0
158159  1  0  0  0  0
158160  4  0  0  0  0
160161  1  0  0  0  0
148162  1  0  0  0  0
153162  4  0  0  0  0
160162  4  0  0  0  0
143163  1  0  0  0  0
163164  2  0  0  0  0
165166  1  0  0  0  0
165167  1  0  0  0  0
167168  1  0  0  0  0
167169  1  0  0  0  0
169170  1  0  0  0  0
169171  1  0  0  0  0
169172  1  0  0  0  0
172173  4  0  0  0  0
173174  1  0  0  0  0
173175  4  0  0  0  0
175176  1  0  0  0  0
175177  4  0  0  0  0
177178  1  0  0  0  0
178179  1  0  0  0  0
177180  4  0  0  0  0
180181  1  0  0  0  0
172182  4  0  0  0  0
180182  4  0  0  0  0
182183  1  0  0  0  0
167184  1  0  0  0  0
184185  2  0  0  0  0
186187  1  0  0  0  0
186188  1  0  0  0  0
188189  1  0  0  0  0
188190  1  0  0  0  0
190191  1  0  0  0  0
190192  1  0  0  0  0
190193  1  0  0  0  0
193194  4  0  0  0  0
194195  2  0  0  0  0
195196  1  0  0  0  0
195197  4  0  0  0  0
197198  1  0  0  0  0
193199  2  0  0  0  0
197199  4  0  0  0  0
199200  1  0  0  0  0
188201  1  0  0  0  0
201202  2  0  0  0  0
203204  1  0  0  0  0
203205  1  0  0  0  0
205206  1  0  0  0  0
205207  1  0  0  0  0
207208  1  0  0  0  0
207209  1  0  0  0  0
209210  1  0  0  0  0
209211  1  0  0  0  0
209212  1  0  0  0  0
207213  1  0  0  0  0
213214  1  0  0  0  0
213215  1  0  0  0  0
213216  1  0  0  0  0
216217  1  0  0  0  0
216218  1  0  0  0  0
216219  1  0  0  0  0
205220  1  0  0  0  0
220221  2  0  0  0  0
220222  4  0  0  0  0
222223  1  0  0  0  0
222224  1  0  0  0  0
224225  1  0  0  0  0
224226  1  0  0  0  0
226227  1  0  0  0  0
226228  1  0  0  0  0
228229  1  0  0  0  0
228230  1  0  0  0  0
228231  1  0  0  0  0
226232  1  0  0  0  0
232233  1  0  0  0  0
232234  1  0  0  0  0
232235  1  0  0  0  0
235236  1  0  0  0  0
235237  1  0  0  0  0
235238  1  0  0  0  0
224239  1  0  0  0  0
239240  2  0  0  0  0
241242  1  0  0  0  0
241243  1  0  0  0  0
243244  1  0  0  0  0
243245  1  0  0  0  0
245246  1  0  0  0  0
245247  1  0  0  0  0
245248  1  0  0  0  0
248249  1  0  0  0  0
248250  1  0  0  0  0
250251  1  0  0  0  0
250252  1  0  0  0  0
250253  1  0  0  0  0
248254  1  0  0  0  0
254255  1  0  0  0  0
254256  1  0  0  0  0
254257  1  0  0  0  0
243258  1  0  0  0  0
258259  2  0  0  0  0
260261  1  0  0  0  0
260262  1  0  0  0  0
262263  1  0  0  0  0
262264  1  0  0  0  0
264265  1  0  0  0  0
264266  1  0  0  0  0
264267  1  0  0  0  0
267268  4  0  0  0  0
268269  1  0  0  0  0
268270  4  0  0  0  0
270271  1  0  0  0  0
270272  4  0  0  0  0
272273  1  0  0  0  0
272274  4  0  0  0  0
274275  1  0  0  0  0
267276  4  0  0  0  0
274276  4  0  0  0  0
276277  1  0  0  0  0
262278  1  0  0  0  0
278279  2  0  0  0  0
  1280  1  0  0  0  0
 20281  1  0  0  0  0
 22282  1  0  0  0  0
 52283  1  0  0  0  0
 54284  1  0  0  0  0
 72285  1  0  0  0  0
 74286  1  0  0  0  0
139287  1  0  0  0  0
141288  1  0  0  0  0
163289  1  0  0  0  0
165290  1  0  0  0  0
184291  1  0  0  0  0
186292  1  0  0  0  0
201293  1  0  0  0  0
203294  1  0  0  0  0
239295  1  0  0  0  0
241296  1  0  0  0  0
258297  1  0  0  0  0
260298  1  0  0  0  0
278299  1  0  0  0  0
M  CHG  1   1  -2
M  END
