 xtb: 6.7.1 (edcfbbe)
          01052609063D

185183  0     0  0            999 V2000
   32.8700   18.6600   32.9600 N   0  0  0  0  0  0  0  0  0  0  0  0
   32.2200   19.4300   32.9900 H   0  0  0  0  0  0  0  0  0  0  0  0
   34.1400   18.8100   33.6300 C   0  0  0  0  0  0  0  0  0  0  0  0
   34.6400   17.8300   33.5900 H   0  0  0  0  0  0  0  0  0  0  0  0
   35.1300   19.7300   32.9300 C   0  0  0  0  0  0  0  0  0  0  0  0
   35.0700   19.4300   31.8900 H   0  0  0  0  0  0  0  0  0  0  0  0
   36.1000   19.5600   33.4000 H   0  0  0  0  0  0  0  0  0  0  0  0
   34.8100   21.2000   33.0300 C   0  0  0  0  0  0  0  0  0  0  0  0
   34.3600   21.8600   31.8800 C   0  0  0  0  0  0  0  0  0  0  0  0
   34.1800   21.3000   30.9700 H   0  0  0  0  0  0  0  0  0  0  0  0
   34.2600   23.2500   31.8300 C   0  0  0  0  0  0  0  0  0  0  0  0
   33.9700   23.7700   30.9300 H   0  0  0  0  0  0  0  0  0  0  0  0
   34.4300   24.0200   32.9900 C   0  0  0  0  0  0  0  0  0  0  0  0
   34.3500   25.0900   33.0000 H   0  0  0  0  0  0  0  0  0  0  0  0
   34.9500   23.3600   34.1100 C   0  0  0  0  0  0  0  0  0  0  0  0
   34.9100   23.9000   35.0400 H   0  0  0  0  0  0  0  0  0  0  0  0
   35.1100   21.9700   34.1600 C   0  0  0  0  0  0  0  0  0  0  0  0
   35.5100   21.4900   35.0400 H   0  0  0  0  0  0  0  0  0  0  0  0
   34.0500   19.0100   35.1400 C   0  0  0  0  0  0  0  0  0  0  0  0
   34.9300   18.4300   35.7800 O   0  0  0  0  0  0  0  0  0  0  0  0
   33.1000   19.7700   35.6700 N   0  0  0  0  0  0  0  0  0  0  0  0
   32.5100   20.2800   35.0300 H   0  0  0  0  0  0  0  0  0  0  0  0
   32.9800   20.1200   37.0700 C   0  0  0  0  0  0  0  0  0  0  0  0
   33.2000   19.2400   37.6800 H   0  0  0  0  0  0  0  0  0  0  0  0
   33.9600   21.2100   37.4900 C   0  0  0  0  0  0  0  0  0  0  0  0
   33.7600   22.1600   37.0000 H   0  0  0  0  0  0  0  0  0  0  0  0
   34.9600   20.8900   37.1700 H   0  0  0  0  0  0  0  0  0  0  0  0
   34.0900   21.4300   38.9900 C   0  0  0  0  0  0  0  0  0  0  0  0
   34.6000   22.5100   39.3700 O   0  0  0  0  0  0  0  0  0  0  0  0
   33.7400   20.5700   39.8200 O   0  0  0  0  0  0  0  0  0  0  0  0
   31.5800   20.6500   37.3500 C   0  0  0  0  0  0  0  0  0  0  0  0
   30.8800   21.2100   36.5100 O   0  0  0  0  0  0  0  0  0  0  0  0
   39.2800   38.4000   40.1900 N   0  0  0  0  0  0  0  0  0  0  0  0
   38.5400   38.9600   39.7800 H   0  0  0  0  0  0  0  0  0  0  0  0
   39.9800   37.4900   39.2900 C   0  0  0  0  0  0  0  0  0  0  0  0
   39.2600   37.1000   38.5700 H   0  0  0  0  0  0  0  0  0  0  0  0
   41.0300   38.2800   38.5200 C   0  0  0  0  0  0  0  0  0  0  0  0
   41.7300   37.5700   38.0600 H   0  0  0  0  0  0  0  0  0  0  0  0
   41.6200   38.8500   39.2300 H   0  0  0  0  0  0  0  0  0  0  0  0
   40.4100   39.1800   37.4500 C   0  0  0  0  0  0  0  0  0  0  0  0
   41.1500   39.9200   37.1400 H   0  0  0  0  0  0  0  0  0  0  0  0
   39.5600   39.6800   37.9100 H   0  0  0  0  0  0  0  0  0  0  0  0
   39.8900   38.6000   36.1500 C   0  0  0  0  0  0  0  0  0  0  0  0
   40.0500   37.4300   35.8000 O   0  0  0  0  0  0  0  0  0  0  0  0
   39.3200   39.4300   35.2700 N   0  0  0  0  0  0  0  0  0  0  0  0
   39.0100   40.3800   35.4400 H   0  0  0  0  0  0  0  0  0  0  0  0
   38.9700   38.9300   34.4700 H   0  0  0  0  0  0  0  0  0  0  0  0
   40.4500   36.2000   39.9400 C   0  0  0  0  0  0  0  0  0  0  0  0
   41.2600   35.4700   39.3700 O   0  0  0  0  0  0  0  0  0  0  0  0
   39.8700   35.8300   41.0800 N   0  0  0  0  0  0  0  0  0  0  0  0
   39.2300   36.5200   41.4400 H   0  0  0  0  0  0  0  0  0  0  0  0
   39.9600   34.5600   41.7800 C   0  0  0  0  0  0  0  0  0  0  0  0
   40.9700   34.1600   41.7800 H   0  0  0  0  0  0  0  0  0  0  0  0
   39.6000   34.8500   43.2400 C   0  0  0  0  0  0  0  0  0  0  0  0
   40.2100   35.7100   43.5200 H   0  0  0  0  0  0  0  0  0  0  0  0
   40.0000   34.0600   43.8700 H   0  0  0  0  0  0  0  0  0  0  0  0
   38.1300   35.1500   43.5300 C   0  0  0  0  0  0  0  0  0  0  0  0
   37.5100   34.3000   43.2400 H   0  0  0  0  0  0  0  0  0  0  0  0
   37.7600   36.0500   43.0400 H   0  0  0  0  0  0  0  0  0  0  0  0
   37.9700   35.2300   45.0400 C   0  0  0  0  0  0  0  0  0  0  0  0
   38.9500   35.5500   45.7400 O   0  0  0  0  0  0  0  0  0  0  0  0
   36.8600   35.0100   45.5800 O   0  0  0  0  0  0  0  0  0  0  0  0
   39.0900   33.4600   41.1900 C   0  0  0  0  0  0  0  0  0  0  0  0
   38.9200   32.3900   41.7700 O   0  0  0  0  0  0  0  0  0  0  0  0
   38.6100   33.6500   39.9600 N   0  0  0  0  0  0  0  0  0  0  0  0
   38.9700   34.4700   39.5000 H   0  0  0  0  0  0  0  0  0  0  0  0
   37.7300   32.8800   39.1000 C   0  0  0  0  0  0  0  0  0  0  0  0
   38.1300   31.8700   39.1700 H   0  0  0  0  0  0  0  0  0  0  0  0
   36.2200   32.9700   39.3300 C   0  0  0  0  0  0  0  0  0  0  0  0
   35.7200   32.4700   38.5100 H   0  0  0  0  0  0  0  0  0  0  0  0
   35.8100   32.2000   40.5800 C   0  0  0  0  0  0  0  0  0  0  0  0
   36.4600   31.3400   40.7400 H   0  0  0  0  0  0  0  0  0  0  0  0
   36.0900   32.7900   41.4600 H   0  0  0  0  0  0  0  0  0  0  0  0
   34.7800   31.8600   40.5800 H   0  0  0  0  0  0  0  0  0  0  0  0
   35.7900   34.4400   39.2900 C   0  0  0  0  0  0  0  0  0  0  0  0
   34.7100   34.3600   39.3200 H   0  0  0  0  0  0  0  0  0  0  0  0
   36.1500   34.8700   40.2300 H   0  0  0  0  0  0  0  0  0  0  0  0
   36.0500   34.9500   38.3700 H   0  0  0  0  0  0  0  0  0  0  0  0
   38.1400   33.2900   37.6900 C   0  0  0  0  0  0  0  0  0  0  0  0
   38.8900   34.2100   37.3900 O   0  0  0  0  0  0  0  0  0  0  0  0
   37.8100   32.3800   36.7700 N   0  0  0  0  0  0  0  0  0  0  0  0
   37.4000   31.5300   37.1300 H   0  0  0  0  0  0  0  0  0  0  0  0
   38.1700   32.5500   35.3700 C   0  0  0  0  0  0  0  0  0  0  0  0
   39.2300   32.7900   35.3200 H   0  0  0  0  0  0  0  0  0  0  0  0
   38.0000   31.2400   34.6000 C   0  0  0  0  0  0  0  0  0  0  0  0
   38.2400   31.5000   33.5700 H   0  0  0  0  0  0  0  0  0  0  0  0
   38.9800   30.1700   35.0900 C   0  0  0  0  0  0  0  0  0  0  0  0
   38.9000   29.9400   36.1500 H   0  0  0  0  0  0  0  0  0  0  0  0
   38.9500   29.2300   34.5400 H   0  0  0  0  0  0  0  0  0  0  0  0
   40.0000   30.5000   34.9000 H   0  0  0  0  0  0  0  0  0  0  0  0
   36.6100   30.6400   34.6800 C   0  0  0  0  0  0  0  0  0  0  0  0
   35.8800   31.4500   34.7000 H   0  0  0  0  0  0  0  0  0  0  0  0
   36.4900   30.1900   35.6600 H   0  0  0  0  0  0  0  0  0  0  0  0
   36.1500   29.7600   33.5200 C   0  0  0  0  0  0  0  0  0  0  0  0
   35.2300   29.2100   33.7300 H   0  0  0  0  0  0  0  0  0  0  0  0
   35.9200   30.3300   32.6200 H   0  0  0  0  0  0  0  0  0  0  0  0
   36.8400   28.9300   33.3200 H   0  0  0  0  0  0  0  0  0  0  0  0
   37.4500   33.7500   34.7700 C   0  0  0  0  0  0  0  0  0  0  0  0
   36.3000   34.0400   35.1200 O   0  0  0  0  0  0  0  0  0  0  0  0
   40.9100   28.4700   30.1200 N   0  0  0  0  0  0  0  0  0  0  0  0
   40.3000   27.9200   29.5300 H   0  0  0  0  0  0  0  0  0  0  0  0
   42.1900   27.8300   30.3600 C   0  0  0  0  0  0  0  0  0  0  0  0
   42.7100   28.2500   31.2200 H   0  0  0  0  0  0  0  0  0  0  0  0
   41.9600   26.3800   30.7700 C   0  0  0  0  0  0  0  0  0  0  0  0
   42.9100   25.9300   31.0500 H   0  0  0  0  0  0  0  0  0  0  0  0
   41.4600   25.8200   29.9900 H   0  0  0  0  0  0  0  0  0  0  0  0
   41.0800   26.2800   32.0000 C   0  0  0  0  0  0  0  0  0  0  0  0
   41.6100   26.6800   33.2300 C   0  0  0  0  0  0  0  0  0  0  0  0
   42.6200   27.0600   33.2300 H   0  0  0  0  0  0  0  0  0  0  0  0
   40.8600   26.6300   34.4200 C   0  0  0  0  0  0  0  0  0  0  0  0
   41.3200   26.9600   35.3300 H   0  0  0  0  0  0  0  0  0  0  0  0
   39.5000   26.3100   34.2900 C   0  0  0  0  0  0  0  0  0  0  0  0
   38.7000   26.5400   35.3700 O   0  0  0  0  0  0  0  0  0  0  0  0
   39.1800   26.6700   36.1900 H   0  0  0  0  0  0  0  0  0  0  0  0
   38.9100   26.0200   33.0300 C   0  0  0  0  0  0  0  0  0  0  0  0
   37.8400   25.9000   33.0000 H   0  0  0  0  0  0  0  0  0  0  0  0
   39.7200   25.9600   31.8900 C   0  0  0  0  0  0  0  0  0  0  0  0
   39.2800   25.8400   30.9200 H   0  0  0  0  0  0  0  0  0  0  0  0
   43.2200   27.8600   29.2300 C   0  0  0  0  0  0  0  0  0  0  0  0
   44.2700   27.2600   29.4200 O   0  0  0  0  0  0  0  0  0  0  0  0
   43.8000   21.5000   31.3600 N   0  0  0  0  0  0  0  0  0  0  0  0
   43.6000   20.9700   30.5200 H   0  0  0  0  0  0  0  0  0  0  0  0
   44.3200   20.7700   32.5000 C   0  0  0  0  0  0  0  0  0  0  0  0
   45.2700   21.2500   32.7600 H   0  0  0  0  0  0  0  0  0  0  0  0
   43.3400   20.9200   33.6600 C   0  0  0  0  0  0  0  0  0  0  0  0
   42.4600   20.4200   33.2500 H   0  0  0  0  0  0  0  0  0  0  0  0
   43.1100   21.9700   33.8200 H   0  0  0  0  0  0  0  0  0  0  0  0
   43.7700   20.2900   34.9600 C   0  0  0  0  0  0  0  0  0  0  0  0
   44.7300   20.8700   35.7900 N   0  0  0  0  0  0  0  0  0  0  0  0
   44.8600   20.0400   36.8200 C   0  0  0  0  0  0  0  0  0  0  0  0
   45.5400   20.1500   37.6500 H   0  0  0  0  0  0  0  0  0  0  0  0
   44.0800   18.9600   36.6200 N   0  0  0  0  0  0  0  0  0  0  0  0
   44.2100   18.1000   37.1300 H   0  0  0  0  0  0  0  0  0  0  0  0
   43.2700   19.1400   35.5100 C   0  0  0  0  0  0  0  0  0  0  0  0
   42.5600   18.4000   35.1700 H   0  0  0  0  0  0  0  0  0  0  0  0
   44.4700   19.3000   32.1500 C   0  0  0  0  0  0  0  0  0  0  0  0
   43.6000   18.8000   31.4300 O   0  0  0  0  0  0  0  0  0  0  0  0
   41.3000   16.1500   31.6600 N   0  0  0  0  0  0  0  0  0  0  0  0
   41.8100   16.2200   32.5300 H   0  0  0  0  0  0  0  0  0  0  0  0
   39.9300   16.6300   31.6900 C   0  0  0  0  0  0  0  0  0  0  0  0
   39.4600   15.7200   31.3100 H   0  0  0  0  0  0  0  0  0  0  0  0
   39.4100   16.7900   33.1200 C   0  0  0  0  0  0  0  0  0  0  0  0
   39.5700   15.8200   33.6000 H   0  0  0  0  0  0  0  0  0  0  0  0
   40.1700   17.9100   33.8200 C   0  0  0  0  0  0  0  0  0  0  0  0
   39.9300   17.8000   34.8800 H   0  0  0  0  0  0  0  0  0  0  0  0
   41.2300   17.6900   33.6900 H   0  0  0  0  0  0  0  0  0  0  0  0
   40.0200   18.9100   33.4300 H   0  0  0  0  0  0  0  0  0  0  0  0
   37.9000   16.9800   33.2800 C   0  0  0  0  0  0  0  0  0  0  0  0
   37.5500   17.9700   33.0100 H   0  0  0  0  0  0  0  0  0  0  0  0
   37.5700   16.9100   34.3200 H   0  0  0  0  0  0  0  0  0  0  0  0
   37.0800   15.8900   32.6000 C   0  0  0  0  0  0  0  0  0  0  0  0
   37.3500   14.9000   32.9500 H   0  0  0  0  0  0  0  0  0  0  0  0
   36.0300   15.9200   32.8700 H   0  0  0  0  0  0  0  0  0  0  0  0
   37.2200   15.9500   31.5200 H   0  0  0  0  0  0  0  0  0  0  0  0
   39.5600   17.7700   30.7600 C   0  0  0  0  0  0  0  0  0  0  0  0
   38.4600   17.6700   30.2200 O   0  0  0  0  0  0  0  0  0  0  0  0
   40.4200   18.7800   30.6300 N   0  0  0  0  0  0  0  0  0  0  0  0
   41.3400   18.7700   31.0400 H   0  0  0  0  0  0  0  0  0  0  0  0
   40.1100   19.9600   29.8300 C   0  0  0  0  0  0  0  0  0  0  0  0
   39.1500   19.7800   29.3600 H   0  0  0  0  0  0  0  0  0  0  0  0
   39.9800   21.2200   30.6800 C   0  0  0  0  0  0  0  0  0  0  0  0
   40.8900   21.3500   31.2700 H   0  0  0  0  0  0  0  0  0  0  0  0
   39.6400   22.4100   29.7900 C   0  0  0  0  0  0  0  0  0  0  0  0
   40.5300   22.7700   29.2700 H   0  0  0  0  0  0  0  0  0  0  0  0
   38.8200   22.2300   29.1000 H   0  0  0  0  0  0  0  0  0  0  0  0
   39.3000   23.2400   30.4100 H   0  0  0  0  0  0  0  0  0  0  0  0
   38.8800   21.2400   31.7400 C   0  0  0  0  0  0  0  0  0  0  0  0
   38.4900   20.2600   32.0200 H   0  0  0  0  0  0  0  0  0  0  0  0
   37.9400   21.6600   31.4000 H   0  0  0  0  0  0  0  0  0  0  0  0
   39.3600   22.0300   32.9600 C   0  0  0  0  0  0  0  0  0  0  0  0
   40.1400   21.4500   33.4700 H   0  0  0  0  0  0  0  0  0  0  0  0
   39.8500   22.9300   32.6000 H   0  0  0  0  0  0  0  0  0  0  0  0
   38.4900   22.1000   33.6100 H   0  0  0  0  0  0  0  0  0  0  0  0
   41.2000   20.1900   28.7900 C   0  0  0  0  0  0  0  0  0  0  0  0
   42.3500   20.3900   29.1600 O   0  0  0  0  0  0  0  0  0  0  0  0
   32.4920   17.7680   32.6730 H   0  0  0  0  0  0  0  0  0  0  0  0
   31.1850   20.4850   38.3630 H   0  0  0  0  0  0  0  0  0  0  0  0
   39.7340   38.8540   40.9700 H   0  0  0  0  0  0  0  0  0  0  0  0
   37.9630   34.2880   33.9590 H   0  0  0  0  0  0  0  0  0  0  0  0
   40.6600   29.3870   30.4610 H   0  0  0  0  0  0  0  0  0  0  0  0
   42.9810   28.5190   28.3820 H   0  0  0  0  0  0  0  0  0  0  0  0
   43.8230   22.4920   31.1710 H   0  0  0  0  0  0  0  0  0  0  0  0
   45.2770   18.6990   32.5950 H   0  0  0  0  0  0  0  0  0  0  0  0
   41.8150   15.7110   30.9100 H   0  0  0  0  0  0  0  0  0  0  0  0
   41.0190   20.1650   27.7050 H   0  0  0  0  0  0  0  0  0  0  0  0
  1  2  1  0  0  0  0
  1  3  1  0  0  0  0
  3  4  1  0  0  0  0
  3  5  1  0  0  0  0
  5  6  1  0  0  0  0
  5  7  1  0  0  0  0
  5  8  1  0  0  0  0
  8  9  4  0  0  0  0
  9 10  1  0  0  0  0
  9 11  4  0  0  0  0
 11 12  1  0  0  0  0
 11 13  4  0  0  0  0
 13 14  1  0  0  0  0
 13 15  4  0  0  0  0
 15 16  1  0  0  0  0
  8 17  4  0  0  0  0
 15 17  4  0  0  0  0
 17 18  1  0  0  0  0
  3 19  1  0  0  0  0
 19 20  2  0  0  0  0
 19 21  4  0  0  0  0
 21 22  1  0  0  0  0
 21 23  1  0  0  0  0
 23 24  1  0  0  0  0
 23 25  1  0  0  0  0
 25 26  1  0  0  0  0
 25 27  1  0  0  0  0
 25 28  1  0  0  0  0
 28 29  4  0  0  0  0
 28 30  4  0  0  0  0
 23 31  1  0  0  0  0
 31 32  2  0  0  0  0
 33 34  1  0  0  0  0
 33 35  1  0  0  0  0
 35 36  1  0  0  0  0
 35 37  1  0  0  0  0
 37 38  1  0  0  0  0
 37 39  1  0  0  0  0
 37 40  1  0  0  0  0
 40 41  1  0  0  0  0
 40 42  1  0  0  0  0
 40 43  1  0  0  0  0
 43 44  2  0  0  0  0
 43 45  4  0  0  0  0
 45 46  1  0  0  0  0
 45 47  1  0  0  0  0
 35 48  1  0  0  0  0
 48 49  2  0  0  0  0
 48 50  4  0  0  0  0
 50 51  1  0  0  0  0
 50 52  1  0  0  0  0
 52 53  1  0  0  0  0
 52 54  1  0  0  0  0
 54 55  1  0  0  0  0
 54 56  1  0  0  0  0
 54 57  1  0  0  0  0
 57 58  1  0  0  0  0
 57 59  1  0  0  0  0
 57 60  1  0  0  0  0
 60 61  4  0  0  0  0
 60 62  4  0  0  0  0
 52 63  1  0  0  0  0
 63 64  2  0  0  0  0
 63 65  4  0  0  0  0
 65 66  1  0  0  0  0
 65 67  1  0  0  0  0
 67 68  1  0  0  0  0
 67 69  1  0  0  0  0
 69 70  1  0  0  0  0
 69 71  1  0  0  0  0
 71 72  1  0  0  0  0
 71 73  1  0  0  0  0
 71 74  1  0  0  0  0
 69 75  1  0  0  0  0
 75 76  1  0  0  0  0
 75 77  1  0  0  0  0
 75 78  1  0  0  0  0
 67 79  1  0  0  0  0
 79 80  2  0  0  0  0
 79 81  4  0  0  0  0
 81 82  1  0  0  0  0
 81 83  1  0  0  0  0
 83 84  1  0  0  0  0
 83 85  1  0  0  0  0
 85 86  1  0  0  0  0
 85 87  1  0  0  0  0
 87 88  1  0  0  0  0
 87 89  1  0  0  0  0
 87 90  1  0  0  0  0
 85 91  1  0  0  0  0
 91 92  1  0  0  0  0
 91 93  1  0  0  0  0
 91 94  1  0  0  0  0
 94 95  1  0  0  0  0
 94 96  1  0  0  0  0
 94 97  1  0  0  0  0
 83 98  1  0  0  0  0
 98 99  2  0  0  0  0
100101  1  0  0  0  0
100102  1  0  0  0  0
102103  1  0  0  0  0
102104  1  0  0  0  0
104105  1  0  0  0  0
104106  1  0  0  0  0
104107  1  0  0  0  0
107108  4  0  0  0  0
108109  1  0  0  0  0
108110  4  0  0  0  0
110111  1  0  0  0  0
110112  4  0  0  0  0
112113  1  0  0  0  0
113114  1  0  0  0  0
112115  4  0  0  0  0
115116  1  0  0  0  0
107117  4  0  0  0  0
115117  4  0  0  0  0
117118  1  0  0  0  0
102119  1  0  0  0  0
119120  2  0  0  0  0
121122  1  0  0  0  0
121123  1  0  0  0  0
123124  1  0  0  0  0
123125  1  0  0  0  0
125126  1  0  0  0  0
125127  1  0  0  0  0
125128  1  0  0  0  0
128129  4  0  0  0  0
129130  2  0  0  0  0
130131  1  0  0  0  0
130132  4  0  0  0  0
132133  1  0  0  0  0
128134  2  0  0  0  0
132134  1  0  0  0  0
134135  1  0  0  0  0
123136  1  0  0  0  0
136137  2  0  0  0  0
138139  1  0  0  0  0
138140  1  0  0  0  0
140141  1  0  0  0  0
140142  1  0  0  0  0
142143  1  0  0  0  0
142144  1  0  0  0  0
144145  1  0  0  0  0
144146  1  0  0  0  0
144147  1  0  0  0  0
142148  1  0  0  0  0
148149  1  0  0  0  0
148150  1  0  0  0  0
148151  1  0  0  0  0
151152  1  0  0  0  0
151153  1  0  0  0  0
151154  1  0  0  0  0
140155  1  0  0  0  0
155156  2  0  0  0  0
155157  4  0  0  0  0
157158  1  0  0  0  0
157159  1  0  0  0  0
159160  1  0  0  0  0
159161  1  0  0  0  0
161162  1  0  0  0  0
161163  1  0  0  0  0
163164  1  0  0  0  0
163165  1  0  0  0  0
163166  1  0  0  0  0
161167  1  0  0  0  0
167168  1  0  0  0  0
167169  1  0  0  0  0
167170  1  0  0  0  0
170171  1  0  0  0  0
170172  1  0  0  0  0
170173  1  0  0  0  0
159174  1  0  0  0  0
174175  2  0  0  0  0
  1176  1  0  0  0  0
 31177  1  0  0  0  0
 33178  1  0  0  0  0
 98179  1  0  0  0  0
100180  1  0  0  0  0
119181  1  0  0  0  0
121182  1  0  0  0  0
136183  1  0  0  0  0
138184  1  0  0  0  0
174185  1  0  0  0  0
M  CHG  1   1  -2
M  END
