 xtb: 6.7.1 (edcfbbe)
          01052609073D

168166  0     0  0            999 V2000
   19.8500    2.2000   39.4100 N   0  0  0  0  0  0  0  0  0  0  0  0
   19.6100    3.1800   39.3800 H   0  0  0  0  0  0  0  0  0  0  0  0
   20.9000    1.7100   40.2700 C   0  0  0  0  0  0  0  0  0  0  0  0
   21.1600    0.7200   39.8900 H   0  0  0  0  0  0  0  0  0  0  0  0
   22.1500    2.5700   40.1000 C   0  0  0  0  0  0  0  0  0  0  0  0
   22.3500    2.6500   39.0300 H   0  0  0  0  0  0  0  0  0  0  0  0
   23.0000    2.0600   40.5500 H   0  0  0  0  0  0  0  0  0  0  0  0
   22.0900    3.9300   40.7500 C   0  0  0  0  0  0  0  0  0  0  0  0
   21.9800    5.0400   39.9100 C   0  0  0  0  0  0  0  0  0  0  0  0
   21.7800    5.0200   38.8500 H   0  0  0  0  0  0  0  0  0  0  0  0
   22.1400    6.3200   40.4600 C   0  0  0  0  0  0  0  0  0  0  0  0
   22.1500    7.2100   39.8600 H   0  0  0  0  0  0  0  0  0  0  0  0
   22.2800    6.4700   41.8500 C   0  0  0  0  0  0  0  0  0  0  0  0
   22.3300    7.4500   42.2900 H   0  0  0  0  0  0  0  0  0  0  0  0
   22.1500    5.3600   42.6900 C   0  0  0  0  0  0  0  0  0  0  0  0
   22.1900    5.5700   43.7500 H   0  0  0  0  0  0  0  0  0  0  0  0
   22.1900    4.0800   42.1400 C   0  0  0  0  0  0  0  0  0  0  0  0
   22.2300    3.2400   42.8100 H   0  0  0  0  0  0  0  0  0  0  0  0
   20.4600    1.5300   41.7200 C   0  0  0  0  0  0  0  0  0  0  0  0
   20.9700    0.7000   42.4700 O   0  0  0  0  0  0  0  0  0  0  0  0
   19.4400    2.2700   42.1500 N   0  0  0  0  0  0  0  0  0  0  0  0
   19.1300    2.9600   41.4800 H   0  0  0  0  0  0  0  0  0  0  0  0
   18.5900    1.8800   43.2500 C   0  0  0  0  0  0  0  0  0  0  0  0
   18.3100    0.8300   43.2600 H   0  0  0  0  0  0  0  0  0  0  0  0
   19.2800    2.2900   44.5500 C   0  0  0  0  0  0  0  0  0  0  0  0
   19.1100    3.3500   44.7700 H   0  0  0  0  0  0  0  0  0  0  0  0
   20.3700    2.2000   44.4700 H   0  0  0  0  0  0  0  0  0  0  0  0
   18.8000    1.5400   45.7800 C   0  0  0  0  0  0  0  0  0  0  0  0
   17.8800    0.7100   45.6600 O   0  0  0  0  0  0  0  0  0  0  0  0
   19.3200    1.7200   46.9100 O   0  0  0  0  0  0  0  0  0  0  0  0
   17.3500    2.7700   43.1800 C   0  0  0  0  0  0  0  0  0  0  0  0
   17.2300    3.7700   42.4800 O   0  0  0  0  0  0  0  0  0  0  0  0
   24.8400   12.6300   55.5000 N   0  0  0  0  0  0  0  0  0  0  0  0
   24.2800   13.4200   55.8000 H   0  0  0  0  0  0  0  0  0  0  0  0
   24.3000   11.2900   55.5900 C   0  0  0  0  0  0  0  0  0  0  0  0
   24.9800   10.6800   56.1900 H   0  0  0  0  0  0  0  0  0  0  0  0
   22.9700   11.3100   56.3400 C   0  0  0  0  0  0  0  0  0  0  0  0
   22.7000   10.2900   56.6000 H   0  0  0  0  0  0  0  0  0  0  0  0
   22.2700   11.6300   55.5700 H   0  0  0  0  0  0  0  0  0  0  0  0
   22.9700   12.1000   57.6400 C   0  0  0  0  0  0  0  0  0  0  0  0
   22.8600   13.1700   57.4600 H   0  0  0  0  0  0  0  0  0  0  0  0
   23.8800   11.9600   58.2200 H   0  0  0  0  0  0  0  0  0  0  0  0
   21.8100   11.6000   58.4900 C   0  0  0  0  0  0  0  0  0  0  0  0
   22.0000   11.6400   59.7200 O   0  0  0  0  0  0  0  0  0  0  0  0
   20.7000   11.2900   57.9900 O   0  0  0  0  0  0  0  0  0  0  0  0
   24.0800   10.6400   54.2300 C   0  0  0  0  0  0  0  0  0  0  0  0
   23.7500    9.4600   54.1600 O   0  0  0  0  0  0  0  0  0  0  0  0
   24.2300   11.4600   53.1900 N   0  0  0  0  0  0  0  0  0  0  0  0
   24.7300   12.2900   53.4600 H   0  0  0  0  0  0  0  0  0  0  0  0
   24.0100   11.1100   51.8000 C   0  0  0  0  0  0  0  0  0  0  0  0
   24.2300   10.0500   51.6900 H   0  0  0  0  0  0  0  0  0  0  0  0
   22.6100   11.4900   51.3400 C   0  0  0  0  0  0  0  0  0  0  0  0
   22.4600   10.9300   50.4200 H   0  0  0  0  0  0  0  0  0  0  0  0
   21.4700   10.9300   52.1900 C   0  0  0  0  0  0  0  0  0  0  0  0
   21.3400   11.3800   53.1700 H   0  0  0  0  0  0  0  0  0  0  0  0
   20.5400   11.1600   51.6600 H   0  0  0  0  0  0  0  0  0  0  0  0
   21.6200    9.8600   52.3000 H   0  0  0  0  0  0  0  0  0  0  0  0
   22.4500   13.0000   51.1900 C   0  0  0  0  0  0  0  0  0  0  0  0
   23.1600   13.3500   50.4400 H   0  0  0  0  0  0  0  0  0  0  0  0
   21.4700   13.3600   50.8800 H   0  0  0  0  0  0  0  0  0  0  0  0
   22.8300   13.5700   52.0400 H   0  0  0  0  0  0  0  0  0  0  0  0
   25.0300   11.8600   50.9500 C   0  0  0  0  0  0  0  0  0  0  0  0
   25.8500   12.6500   51.4000 O   0  0  0  0  0  0  0  0  0  0  0  0
   25.1200   11.5100   49.6600 N   0  0  0  0  0  0  0  0  0  0  0  0
   24.6300   10.6800   49.3500 H   0  0  0  0  0  0  0  0  0  0  0  0
   25.9600   12.1200   48.6600 C   0  0  0  0  0  0  0  0  0  0  0  0
   26.9800   11.9100   48.9800 H   0  0  0  0  0  0  0  0  0  0  0  0
   25.7600   11.3900   47.3300 C   0  0  0  0  0  0  0  0  0  0  0  0
   26.4300   11.9300   46.6700 H   0  0  0  0  0  0  0  0  0  0  0  0
   26.4500   10.0300   47.4700 C   0  0  0  0  0  0  0  0  0  0  0  0
   27.4000   10.1100   48.0000 H   0  0  0  0  0  0  0  0  0  0  0  0
   25.8000    9.2600   47.8800 H   0  0  0  0  0  0  0  0  0  0  0  0
   26.6000    9.4900   46.5400 H   0  0  0  0  0  0  0  0  0  0  0  0
   24.3400   11.3700   46.7700 C   0  0  0  0  0  0  0  0  0  0  0  0
   23.7700   12.2500   47.0500 H   0  0  0  0  0  0  0  0  0  0  0  0
   23.8700   10.5800   47.3500 H   0  0  0  0  0  0  0  0  0  0  0  0
   24.3200   11.1000   45.2600 C   0  0  0  0  0  0  0  0  0  0  0  0
   25.0300   11.7900   44.8300 H   0  0  0  0  0  0  0  0  0  0  0  0
   24.7000   10.1100   45.0100 H   0  0  0  0  0  0  0  0  0  0  0  0
   23.3900   11.2700   44.7100 H   0  0  0  0  0  0  0  0  0  0  0  0
   25.8400   13.6400   48.5900 C   0  0  0  0  0  0  0  0  0  0  0  0
   24.7600   14.2100   48.7200 O   0  0  0  0  0  0  0  0  0  0  0  0
   29.6300    9.1300   44.4400 N   0  0  0  0  0  0  0  0  0  0  0  0
   29.0500    8.9300   43.6400 H   0  0  0  0  0  0  0  0  0  0  0  0
   30.4900    8.0500   44.8800 C   0  0  0  0  0  0  0  0  0  0  0  0
   30.5200    8.1700   45.9600 H   0  0  0  0  0  0  0  0  0  0  0  0
   29.7400    6.7400   44.6200 C   0  0  0  0  0  0  0  0  0  0  0  0
   30.4400    5.9100   44.7100 H   0  0  0  0  0  0  0  0  0  0  0  0
   29.4900    6.6300   43.5600 H   0  0  0  0  0  0  0  0  0  0  0  0
   28.4200    6.5300   45.3200 C   0  0  0  0  0  0  0  0  0  0  0  0
   28.4400    6.4500   46.7200 C   0  0  0  0  0  0  0  0  0  0  0  0
   29.3600    6.2100   47.2400 H   0  0  0  0  0  0  0  0  0  0  0  0
   27.2000    6.4800   47.3700 C   0  0  0  0  0  0  0  0  0  0  0  0
   27.1200    6.4000   48.4400 H   0  0  0  0  0  0  0  0  0  0  0  0
   25.9800    6.5900   46.6600 C   0  0  0  0  0  0  0  0  0  0  0  0
   24.8800    6.6500   47.4700 O   0  0  0  0  0  0  0  0  0  0  0  0
   24.1600    6.2200   47.0000 H   0  0  0  0  0  0  0  0  0  0  0  0
   26.0100    6.6600   45.2500 C   0  0  0  0  0  0  0  0  0  0  0  0
   25.1100    6.7500   44.6800 H   0  0  0  0  0  0  0  0  0  0  0  0
   27.2400    6.6800   44.5800 C   0  0  0  0  0  0  0  0  0  0  0  0
   27.2600    6.7900   43.5100 H   0  0  0  0  0  0  0  0  0  0  0  0
   31.9100    8.0800   44.3300 C   0  0  0  0  0  0  0  0  0  0  0  0
   32.7600    7.3100   44.7900 O   0  0  0  0  0  0  0  0  0  0  0  0
   29.9300    1.8700   44.0200 N   0  0  0  0  0  0  0  0  0  0  0  0
   30.0100    1.6900   43.0300 H   0  0  0  0  0  0  0  0  0  0  0  0
   29.6700    0.7600   44.9100 C   0  0  0  0  0  0  0  0  0  0  0  0
   30.2800    0.8700   45.8100 H   0  0  0  0  0  0  0  0  0  0  0  0
   28.2700    0.8600   45.5000 C   0  0  0  0  0  0  0  0  0  0  0  0
   27.5600    0.5600   44.7200 H   0  0  0  0  0  0  0  0  0  0  0  0
   28.0500    1.8800   45.8200 H   0  0  0  0  0  0  0  0  0  0  0  0
   28.1500   -0.0500   46.6900 C   0  0  0  0  0  0  0  0  0  0  0  0
   28.5300    0.2700   47.9900 N   0  0  0  0  0  0  0  0  0  0  0  0
   28.2200   -0.8000   48.7300 C   0  0  0  0  0  0  0  0  0  0  0  0
   28.4400   -0.8800   49.7800 H   0  0  0  0  0  0  0  0  0  0  0  0
   27.6700   -1.7700   47.9800 N   0  0  0  0  0  0  0  0  0  0  0  0
   27.3500   -2.6500   48.3500 H   0  0  0  0  0  0  0  0  0  0  0  0
   27.6400   -1.3300   46.6700 C   0  0  0  0  0  0  0  0  0  0  0  0
   27.2300   -1.8400   45.8100 H   0  0  0  0  0  0  0  0  0  0  0  0
   29.9300   -0.5200   44.1200 C   0  0  0  0  0  0  0  0  0  0  0  0
   29.5600   -0.5800   42.9500 O   0  0  0  0  0  0  0  0  0  0  0  0
   27.3100   -2.2900   40.9900 N   0  0  0  0  0  0  0  0  0  0  0  0
   28.1100   -1.8200   41.3800 H   0  0  0  0  0  0  0  0  0  0  0  0
   26.1100   -1.5300   40.7000 C   0  0  0  0  0  0  0  0  0  0  0  0
   25.7100   -2.0500   39.8300 H   0  0  0  0  0  0  0  0  0  0  0  0
   25.1300   -1.5700   41.8700 C   0  0  0  0  0  0  0  0  0  0  0  0
   25.0800   -2.6400   42.0600 H   0  0  0  0  0  0  0  0  0  0  0  0
   25.5500   -0.9800   43.2200 C   0  0  0  0  0  0  0  0  0  0  0  0
   24.8900   -1.1500   44.0700 H   0  0  0  0  0  0  0  0  0  0  0  0
   26.4400   -1.5200   43.5400 H   0  0  0  0  0  0  0  0  0  0  0  0
   25.7800    0.0800   43.1800 H   0  0  0  0  0  0  0  0  0  0  0  0
   23.7100   -1.0900   41.5800 C   0  0  0  0  0  0  0  0  0  0  0  0
   23.7700   -0.0300   41.3300 H   0  0  0  0  0  0  0  0  0  0  0  0
   23.0300   -1.3700   42.3800 H   0  0  0  0  0  0  0  0  0  0  0  0
   23.0600   -1.6200   40.3000 C   0  0  0  0  0  0  0  0  0  0  0  0
   23.6700   -1.2300   39.4900 H   0  0  0  0  0  0  0  0  0  0  0  0
   22.9200   -2.7000   40.4200 H   0  0  0  0  0  0  0  0  0  0  0  0
   22.0100   -1.3400   40.3600 H   0  0  0  0  0  0  0  0  0  0  0  0
   26.4300   -0.1300   40.2100 C   0  0  0  0  0  0  0  0  0  0  0  0
   25.8500    0.3200   39.2200 O   0  0  0  0  0  0  0  0  0  0  0  0
   27.3500    0.6000   40.8500 N   0  0  0  0  0  0  0  0  0  0  0  0
   27.8500    0.1700   41.6100 H   0  0  0  0  0  0  0  0  0  0  0  0
   27.7400    1.9700   40.5800 C   0  0  0  0  0  0  0  0  0  0  0  0
   27.2100    2.3000   39.6800 H   0  0  0  0  0  0  0  0  0  0  0  0
   27.4000    2.8500   41.7800 C   0  0  0  0  0  0  0  0  0  0  0  0
   27.8900    2.4900   42.6800 H   0  0  0  0  0  0  0  0  0  0  0  0
   28.0100    4.2200   41.4800 C   0  0  0  0  0  0  0  0  0  0  0  0
   29.1000    4.3000   41.5000 H   0  0  0  0  0  0  0  0  0  0  0  0
   27.5900    4.5000   40.5200 H   0  0  0  0  0  0  0  0  0  0  0  0
   27.6300    4.9300   42.2100 H   0  0  0  0  0  0  0  0  0  0  0  0
   25.9100    2.9700   42.0800 C   0  0  0  0  0  0  0  0  0  0  0  0
   25.4300    2.0000   41.9500 H   0  0  0  0  0  0  0  0  0  0  0  0
   25.4900    3.6900   41.3900 H   0  0  0  0  0  0  0  0  0  0  0  0
   25.5600    3.4100   43.5000 C   0  0  0  0  0  0  0  0  0  0  0  0
   25.9400    4.4100   43.6900 H   0  0  0  0  0  0  0  0  0  0  0  0
   24.4800    3.4500   43.6100 H   0  0  0  0  0  0  0  0  0  0  0  0
   25.9700    2.7500   44.2700 H   0  0  0  0  0  0  0  0  0  0  0  0
   29.2200    1.9200   40.2300 C   0  0  0  0  0  0  0  0  0  0  0  0
   29.9900    1.5900   41.1300 O   0  0  0  0  0  0  0  0  0  0  0  0
   19.6610    1.7230   38.5400 H   0  0  0  0  0  0  0  0  0  0  0  0
   16.5870    2.5570   43.9430 H   0  0  0  0  0  0  0  0  0  0  0  0
   25.8170   12.8120   55.3180 H   0  0  0  0  0  0  0  0  0  0  0  0
   26.7790   14.2090   48.5240 H   0  0  0  0  0  0  0  0  0  0  0  0
   29.6220   10.0890   44.7570 H   0  0  0  0  0  0  0  0  0  0  0  0
   32.1830    8.8080   43.5520 H   0  0  0  0  0  0  0  0  0  0  0  0
   30.3670    2.7370   44.2990 H   0  0  0  0  0  0  0  0  0  0  0  0
   30.3410   -1.3990   44.6380 H   0  0  0  0  0  0  0  0  0  0  0  0
   27.2950   -3.2950   40.8920 H   0  0  0  0  0  0  0  0  0  0  0  0
   29.5320    2.1990   39.2130 H   0  0  0  0  0  0  0  0  0  0  0  0
  1  2  1  0  0  0  0
  1  3  1  0  0  0  0
  3  4  1  0  0  0  0
  3  5  1  0  0  0  0
  5  6  1  0  0  0  0
  5  7  1  0  0  0  0
  5  8  1  0  0  0  0
  8  9  4  0  0  0  0
  9 10  1  0  0  0  0
  9 11  4  0  0  0  0
 11 12  1  0  0  0  0
 11 13  4  0  0  0  0
 13 14  1  0  0  0  0
 13 15  4  0  0  0  0
 15 16  1  0  0  0  0
  8 17  4  0  0  0  0
 15 17  4  0  0  0  0
 17 18  1  0  0  0  0
  3 19  1  0  0  0  0
 19 20  2  0  0  0  0
 19 21  4  0  0  0  0
 21 22  1  0  0  0  0
 21 23  1  0  0  0  0
 23 24  1  0  0  0  0
 23 25  1  0  0  0  0
 25 26  1  0  0  0  0
 25 27  1  0  0  0  0
 25 28  1  0  0  0  0
 28 29  4  0  0  0  0
 28 30  4  0  0  0  0
 23 31  1  0  0  0  0
 31 32  2  0  0  0  0
 33 34  1  0  0  0  0
 33 35  1  0  0  0  0
 35 36  1  0  0  0  0
 35 37  1  0  0  0  0
 37 38  1  0  0  0  0
 37 39  1  0  0  0  0
 37 40  1  0  0  0  0
 40 41  1  0  0  0  0
 40 42  1  0  0  0  0
 40 43  1  0  0  0  0
 43 44  4  0  0  0  0
 43 45  4  0  0  0  0
 35 46  1  0  0  0  0
 46 47  2  0  0  0  0
 46 48  4  0  0  0  0
 48 49  1  0  0  0  0
 48 50  1  0  0  0  0
 50 51  1  0  0  0  0
 50 52  1  0  0  0  0
 52 53  1  0  0  0  0
 52 54  1  0  0  0  0
 54 55  1  0  0  0  0
 54 56  1  0  0  0  0
 54 57  1  0  0  0  0
 52 58  1  0  0  0  0
 58 59  1  0  0  0  0
 58 60  1  0  0  0  0
 58 61  1  0  0  0  0
 50 62  1  0  0  0  0
 62 63  2  0  0  0  0
 62 64  4  0  0  0  0
 64 65  1  0  0  0  0
 64 66  1  0  0  0  0
 66 67  1  0  0  0  0
 66 68  1  0  0  0  0
 68 69  1  0  0  0  0
 68 70  1  0  0  0  0
 70 71  1  0  0  0  0
 70 72  1  0  0  0  0
 70 73  1  0  0  0  0
 68 74  1  0  0  0  0
 74 75  1  0  0  0  0
 74 76  1  0  0  0  0
 74 77  1  0  0  0  0
 77 78  1  0  0  0  0
 77 79  1  0  0  0  0
 77 80  1  0  0  0  0
 66 81  1  0  0  0  0
 81 82  2  0  0  0  0
 83 84  1  0  0  0  0
 83 85  1  0  0  0  0
 85 86  1  0  0  0  0
 85 87  1  0  0  0  0
 87 88  1  0  0  0  0
 87 89  1  0  0  0  0
 87 90  1  0  0  0  0
 90 91  4  0  0  0  0
 91 92  1  0  0  0  0
 91 93  4  0  0  0  0
 93 94  1  0  0  0  0
 93 95  4  0  0  0  0
 95 96  1  0  0  0  0
 96 97  1  0  0  0  0
 95 98  4  0  0  0  0
 98 99  1  0  0  0  0
 90100  4  0  0  0  0
 98100  4  0  0  0  0
100101  1  0  0  0  0
 85102  1  0  0  0  0
102103  2  0  0  0  0
104105  1  0  0  0  0
104106  1  0  0  0  0
106107  1  0  0  0  0
106108  1  0  0  0  0
108109  1  0  0  0  0
108110  1  0  0  0  0
108111  1  0  0  0  0
111112  4  0  0  0  0
112113  2  0  0  0  0
113114  1  0  0  0  0
113115  4  0  0  0  0
115116  1  0  0  0  0
111117  2  0  0  0  0
115117  4  0  0  0  0
117118  1  0  0  0  0
106119  1  0  0  0  0
119120  2  0  0  0  0
121122  1  0  0  0  0
121123  1  0  0  0  0
123124  1  0  0  0  0
123125  1  0  0  0  0
125126  1  0  0  0  0
125127  1  0  0  0  0
127128  1  0  0  0  0
127129  1  0  0  0  0
127130  1  0  0  0  0
125131  1  0  0  0  0
131132  1  0  0  0  0
131133  1  0  0  0  0
131134  1  0  0  0  0
134135  1  0  0  0  0
134136  1  0  0  0  0
134137  1  0  0  0  0
123138  1  0  0  0  0
138139  2  0  0  0  0
138140  4  0  0  0  0
140141  1  0  0  0  0
140142  1  0  0  0  0
142143  1  0  0  0  0
142144  1  0  0  0  0
144145  1  0  0  0  0
144146  1  0  0  0  0
146147  1  0  0  0  0
146148  1  0  0  0  0
146149  1  0  0  0  0
144150  1  0  0  0  0
150151  1  0  0  0  0
150152  1  0  0  0  0
150153  1  0  0  0  0
153154  1  0  0  0  0
153155  1  0  0  0  0
153156  1  0  0  0  0
142157  1  0  0  0  0
157158  2  0  0  0  0
  1159  1  0  0  0  0
 31160  1  0  0  0  0
 33161  1  0  0  0  0
 81162  1  0  0  0  0
 83163  1  0  0  0  0
102164  1  0  0  0  0
104165  1  0  0  0  0
119166  1  0  0  0  0
121167  1  0  0  0  0
157168  1  0  0  0  0
M  CHG  1   1  -2
M  END
