 xtb: 6.7.1 (edcfbbe)
          01052609063D

 59 61  0     0  0            999 V2000
   28.4400   17.0800   45.6700 C   0  0  0  0  0  0  0  0  0  0  0  0
   27.8200   18.1200   46.3300 N   0  0  0  0  0  0  0  0  0  0  0  0
   28.2200   18.8500   47.4600 C   0  0  0  0  0  0  0  0  0  0  0  0
   27.0600   21.8800   49.1300 C   0  0  0  0  0  0  0  0  0  0  0  0
   29.5600   18.5800   48.1000 C   0  0  0  0  0  0  0  0  0  0  0  0
   30.6400   19.2200   47.2500 C   0  0  0  0  0  0  0  0  0  0  0  0
   31.8000   18.5200   46.9000 C   0  0  0  0  0  0  0  0  0  0  0  0
   32.8600   19.1400   46.2300 C   0  0  0  0  0  0  0  0  0  0  0  0
   32.8500   20.4800   45.8500 C   0  0  0  0  0  0  0  0  0  0  0  0
   31.7100   21.1900   46.2400 C   0  0  0  0  0  0  0  0  0  0  0  0
   30.6800   20.5900   46.9700 C   0  0  0  0  0  0  0  0  0  0  0  0
   27.7200   20.6700   48.7900 O   0  0  0  0  0  0  0  0  0  0  0  0
   26.0600   19.9000   47.3800 O   0  0  0  0  0  0  0  0  0  0  0  0
   27.1900   19.8500   47.8300 C   0  0  0  0  0  0  0  0  0  0  0  0
   28.1100   22.7700   49.8100 C   0  0  0  0  0  0  0  0  0  0  0  0
   26.3500   14.9400   45.3800 C   0  0  0  0  0  0  0  0  0  0  0  0
   29.5000   16.6400   46.0700 O   0  0  0  0  0  0  0  0  0  0  0  0
   25.0700   15.6600   44.9200 C   0  0  0  0  0  0  0  0  0  0  0  0
   25.1900   17.4700   44.6500 S   0  0  0  0  0  0  0  0  0  0  0  0
   26.8400   17.4900   43.8200 C   0  0  0  0  0  0  0  0  0  0  0  0
   27.9100   16.5200   44.3400 C   0  0  0  0  0  0  0  0  0  0  0  0
   27.4600   15.1300   44.4400 N   0  0  0  0  0  0  0  0  0  0  0  0
   28.5900   13.8600   44.3500 S   0  0  0  0  0  0  0  0  0  0  0  0
   27.6300   12.5100   43.6700 C   0  0  0  0  0  0  0  0  0  0  0  0
   27.2900   12.5400   42.3100 C   0  0  0  0  0  0  0  0  0  0  0  0
   26.4200   11.5800   41.7700 C   0  0  0  0  0  0  0  0  0  0  0  0
   25.8400   10.5700   42.5300 C   0  0  0  0  0  0  0  0  0  0  0  0
   26.4000   10.4300   43.8000 C   0  0  0  0  0  0  0  0  0  0  0  0
   27.2800   11.3600   44.3800 C   0  0  0  0  0  0  0  0  0  0  0  0
   28.9500   13.5800   45.7400 O   0  0  0  0  0  0  0  0  0  0  0  0
   29.5400   14.2200   43.3000 O   0  0  0  0  0  0  0  0  0  0  0  0
   24.8200    9.5900   41.9700 C   0  0  0  0  0  0  0  0  0  0  0  0
   26.9800   18.4300   45.8600 H   0  0  0  0  0  0  0  0  0  0  0  0
   26.7400   22.3200   48.1800 H   0  0  0  0  0  0  0  0  0  0  0  0
   26.1900   21.7100   49.7800 H   0  0  0  0  0  0  0  0  0  0  0  0
   29.6200   18.9800   49.1200 H   0  0  0  0  0  0  0  0  0  0  0  0
   29.7200   17.5300   48.3600 H   0  0  0  0  0  0  0  0  0  0  0  0
   31.9100   17.4900   47.2200 H   0  0  0  0  0  0  0  0  0  0  0  0
   33.7900   18.5700   46.1600 H   0  0  0  0  0  0  0  0  0  0  0  0
   33.7200   20.9800   45.4200 H   0  0  0  0  0  0  0  0  0  0  0  0
   31.5600   22.2600   46.1500 H   0  0  0  0  0  0  0  0  0  0  0  0
   29.8500   21.1700   47.3500 H   0  0  0  0  0  0  0  0  0  0  0  0
   28.6200   22.1400   50.5500 H   0  0  0  0  0  0  0  0  0  0  0  0
   27.6400   23.6200   50.3200 H   0  0  0  0  0  0  0  0  0  0  0  0
   28.8500   23.0600   49.0600 H   0  0  0  0  0  0  0  0  0  0  0  0
   26.5200   15.3200   46.3900 H   0  0  0  0  0  0  0  0  0  0  0  0
   26.1400   13.8800   45.5600 H   0  0  0  0  0  0  0  0  0  0  0  0
   24.7900   15.2000   43.9500 H   0  0  0  0  0  0  0  0  0  0  0  0
   24.3400   15.3600   45.6800 H   0  0  0  0  0  0  0  0  0  0  0  0
   26.6600   17.3200   42.7500 H   0  0  0  0  0  0  0  0  0  0  0  0
   27.1700   18.5200   44.0100 H   0  0  0  0  0  0  0  0  0  0  0  0
   28.7200   16.6200   43.6100 H   0  0  0  0  0  0  0  0  0  0  0  0
   27.5700   13.4400   41.7700 H   0  0  0  0  0  0  0  0  0  0  0  0
   26.1600   11.6900   40.7200 H   0  0  0  0  0  0  0  0  0  0  0  0
   25.9900    9.6300   44.4000 H   0  0  0  0  0  0  0  0  0  0  0  0
   27.5800   11.2400   45.4200 H   0  0  0  0  0  0  0  0  0  0  0  0
   24.7100    8.8800   42.7900 H   0  0  0  0  0  0  0  0  0  0  0  0
   25.2900    9.0900   41.1100 H   0  0  0  0  0  0  0  0  0  0  0  0
   23.8700   10.0500   41.6800 H   0  0  0  0  0  0  0  0  0  0  0  0
  1  2  1  0  0  0  0
  2  3  4  0  0  0  0
  3  5  1  0  0  0  0
  5  6  1  0  0  0  0
  6  7  4  0  0  0  0
  7  8  4  0  0  0  0
  8  9  4  0  0  0  0
  9 10  4  0  0  0  0
  6 11  4  0  0  0  0
 10 11  4  0  0  0  0
  4 12  1  0  0  0  0
  3 14  1  0  0  0  0
 12 14  1  0  0  0  0
 13 14  2  0  0  0  0
  4 15  1  0  0  0  0
  1 17  2  0  0  0  0
 16 18  1  0  0  0  0
 18 19  1  0  0  0  0
 19 20  1  0  0  0  0
  1 21  1  0  0  0  0
 20 21  1  0  0  0  0
 16 22  1  0  0  0  0
 21 22  1  0  0  0  0
 22 23  1  0  0  0  0
 23 24  1  0  0  0  0
 24 25  4  0  0  0  0
 25 26  4  0  0  0  0
 26 27  4  0  0  0  0
 27 28  4  0  0  0  0
 24 29  4  0  0  0  0
 28 29  4  0  0  0  0
 23 30  2  0  0  0  0
 23 31  2  0  0  0  0
 27 32  1  0  0  0  0
  2 33  1  0  0  0  0
  4 34  1  0  0  0  0
  4 35  1  0  0  0  0
  5 36  1  0  0  0  0
  5 37  1  0  0  0  0
  7 38  1  0  0  0  0
  8 39  1  0  0  0  0
  9 40  1  0  0  0  0
 10 41  1  0  0  0  0
 11 42  1  0  0  0  0
 15 43  1  0  0  0  0
 15 44  1  0  0  0  0
 15 45  1  0  0  0  0
 16 46  1  0  0  0  0
 16 47  1  0  0  0  0
 18 48  1  0  0  0  0
 18 49  1  0  0  0  0
 20 50  1  0  0  0  0
 20 51  1  0  0  0  0
 21 52  1  0  0  0  0
 25 53  1  0  0  0  0
 26 54  1  0  0  0  0
 28 55  1  0  0  0  0
 29 56  1  0  0  0  0
 32 57  1  0  0  0  0
 32 58  1  0  0  0  0
 32 59  1  0  0  0  0
M  CHG  1   1   1
M  END
