 xtb: 6.7.1 (edcfbbe)
          01052609063D

 59 61  0     0  0            999 V2000
   35.4000   25.5300   42.1900 C   0  0  0  0  0  0  0  0  0  0  0  0
   35.2800   26.4600   43.2100 N   0  0  0  0  0  0  0  0  0  0  0  0
   36.0700   27.5000   43.7100 C   0  0  0  0  0  0  0  0  0  0  0  0
   36.5100   29.6100   46.6000 C   0  0  0  0  0  0  0  0  0  0  0  0
   37.3200   27.9600   42.9900 C   0  0  0  0  0  0  0  0  0  0  0  0
   37.1300   29.1500   42.0600 C   0  0  0  0  0  0  0  0  0  0  0  0
   37.1500   29.0200   40.6700 C   0  0  0  0  0  0  0  0  0  0  0  0
   36.9500   30.0800   39.7800 C   0  0  0  0  0  0  0  0  0  0  0  0
   36.6700   31.3600   40.2700 C   0  0  0  0  0  0  0  0  0  0  0  0
   36.5200   31.4600   41.6500 C   0  0  0  0  0  0  0  0  0  0  0  0
   36.8200   30.4300   42.5500 C   0  0  0  0  0  0  0  0  0  0  0  0
   36.8100   28.6900   45.5500 O   0  0  0  0  0  0  0  0  0  0  0  0
   34.6800   27.8900   45.6400 O   0  0  0  0  0  0  0  0  0  0  0  0
   35.7200   28.0700   45.0300 C   0  0  0  0  0  0  0  0  0  0  0  0
   37.8100   30.3200   47.0100 C   0  0  0  0  0  0  0  0  0  0  0  0
   33.7700   23.1500   43.1800 C   0  0  0  0  0  0  0  0  0  0  0  0
   36.5100   25.2100   41.8000 O   0  0  0  0  0  0  0  0  0  0  0  0
   32.4200   23.6900   43.6700 C   0  0  0  0  0  0  0  0  0  0  0  0
   32.2400   25.5100   43.4700 S   0  0  0  0  0  0  0  0  0  0  0  0
   32.8200   25.5500   41.7200 C   0  0  0  0  0  0  0  0  0  0  0  0
   34.1900   24.8800   41.5300 C   0  0  0  0  0  0  0  0  0  0  0  0
   34.0000   23.4400   41.7600 N   0  0  0  0  0  0  0  0  0  0  0  0
   35.1000   22.3500   41.0400 S   0  0  0  0  0  0  0  0  0  0  0  0
   34.1400   20.8400   41.0900 C   0  0  0  0  0  0  0  0  0  0  0  0
   32.8000   20.7900   40.6800 C   0  0  0  0  0  0  0  0  0  0  0  0
   32.1000   19.5800   40.6100 C   0  0  0  0  0  0  0  0  0  0  0  0
   32.7500   18.4300   41.0800 C   0  0  0  0  0  0  0  0  0  0  0  0
   34.0500   18.5300   41.5700 C   0  0  0  0  0  0  0  0  0  0  0  0
   34.8000   19.7200   41.6000 C   0  0  0  0  0  0  0  0  0  0  0  0
   36.1600   22.2600   42.0500 O   0  0  0  0  0  0  0  0  0  0  0  0
   35.3200   22.8400   39.6800 O   0  0  0  0  0  0  0  0  0  0  0  0
   32.1100   17.0600   41.0800 C   0  0  0  0  0  0  0  0  0  0  0  0
   34.3300   26.5000   43.5600 H   0  0  0  0  0  0  0  0  0  0  0  0
   35.8900   30.3900   46.1400 H   0  0  0  0  0  0  0  0  0  0  0  0
   36.0700   29.1700   47.5000 H   0  0  0  0  0  0  0  0  0  0  0  0
   38.1300   28.3000   43.6400 H   0  0  0  0  0  0  0  0  0  0  0  0
   37.8200   27.1400   42.4700 H   0  0  0  0  0  0  0  0  0  0  0  0
   37.2500   28.0500   40.2000 H   0  0  0  0  0  0  0  0  0  0  0  0
   37.0100   29.8000   38.7300 H   0  0  0  0  0  0  0  0  0  0  0  0
   36.3800   32.1400   39.5700 H   0  0  0  0  0  0  0  0  0  0  0  0
   36.2700   32.4300   42.0600 H   0  0  0  0  0  0  0  0  0  0  0  0
   36.7700   30.5700   43.6300 H   0  0  0  0  0  0  0  0  0  0  0  0
   38.5000   30.5100   46.1800 H   0  0  0  0  0  0  0  0  0  0  0  0
   38.4100   29.7700   47.7400 H   0  0  0  0  0  0  0  0  0  0  0  0
   37.5100   31.3400   47.2800 H   0  0  0  0  0  0  0  0  0  0  0  0
   34.6000   23.4800   43.8000 H   0  0  0  0  0  0  0  0  0  0  0  0
   33.7800   22.0600   43.3400 H   0  0  0  0  0  0  0  0  0  0  0  0
   31.5700   23.1300   43.2500 H   0  0  0  0  0  0  0  0  0  0  0  0
   32.3700   23.4400   44.7400 H   0  0  0  0  0  0  0  0  0  0  0  0
   32.0000   25.1400   41.1200 H   0  0  0  0  0  0  0  0  0  0  0  0
   32.8200   26.6000   41.3800 H   0  0  0  0  0  0  0  0  0  0  0  0
   34.3600   25.0100   40.4600 H   0  0  0  0  0  0  0  0  0  0  0  0
   32.4500   21.7800   40.4200 H   0  0  0  0  0  0  0  0  0  0  0  0
   31.1700   19.4800   40.0700 H   0  0  0  0  0  0  0  0  0  0  0  0
   34.5100   17.6300   41.9700 H   0  0  0  0  0  0  0  0  0  0  0  0
   35.8300   19.6400   41.9500 H   0  0  0  0  0  0  0  0  0  0  0  0
   32.8200   16.2300   41.0800 H   0  0  0  0  0  0  0  0  0  0  0  0
   31.5000   16.9900   40.1700 H   0  0  0  0  0  0  0  0  0  0  0  0
   31.4300   16.9200   41.9300 H   0  0  0  0  0  0  0  0  0  0  0  0
  1  2  1  0  0  0  0
  2  3  4  0  0  0  0
  3  5  1  0  0  0  0
  5  6  1  0  0  0  0
  6  7  4  0  0  0  0
  7  8  4  0  0  0  0
  8  9  4  0  0  0  0
  9 10  4  0  0  0  0
  6 11  4  0  0  0  0
 10 11  4  0  0  0  0
  4 12  1  0  0  0  0
  3 14  1  0  0  0  0
 12 14  1  0  0  0  0
 13 14  2  0  0  0  0
  4 15  1  0  0  0  0
  1 17  2  0  0  0  0
 16 18  1  0  0  0  0
 18 19  1  0  0  0  0
 19 20  1  0  0  0  0
  1 21  1  0  0  0  0
 20 21  1  0  0  0  0
 16 22  1  0  0  0  0
 21 22  1  0  0  0  0
 22 23  1  0  0  0  0
 23 24  1  0  0  0  0
 24 25  4  0  0  0  0
 25 26  4  0  0  0  0
 26 27  4  0  0  0  0
 27 28  4  0  0  0  0
 24 29  4  0  0  0  0
 28 29  4  0  0  0  0
 23 30  2  0  0  0  0
 23 31  2  0  0  0  0
 27 32  1  0  0  0  0
  2 33  1  0  0  0  0
  4 34  1  0  0  0  0
  4 35  1  0  0  0  0
  5 36  1  0  0  0  0
  5 37  1  0  0  0  0
  7 38  1  0  0  0  0
  8 39  1  0  0  0  0
  9 40  1  0  0  0  0
 10 41  1  0  0  0  0
 11 42  1  0  0  0  0
 15 43  1  0  0  0  0
 15 44  1  0  0  0  0
 15 45  1  0  0  0  0
 16 46  1  0  0  0  0
 16 47  1  0  0  0  0
 18 48  1  0  0  0  0
 18 49  1  0  0  0  0
 20 50  1  0  0  0  0
 20 51  1  0  0  0  0
 21 52  1  0  0  0  0
 25 53  1  0  0  0  0
 26 54  1  0  0  0  0
 28 55  1  0  0  0  0
 29 56  1  0  0  0  0
 32 57  1  0  0  0  0
 32 58  1  0  0  0  0
 32 59  1  0  0  0  0
M  CHG  1   1   1
M  END
