 xtb: 6.7.1 (edcfbbe)
          01052609073D

 59 61  0     0  0            999 V2000
   22.8000    4.0900   57.5900 C   0  0  0  0  0  0  0  0  0  0  0  0
   22.9800    4.8800   58.7100 N   0  0  0  0  0  0  0  0  0  0  0  0
   23.8900    4.9500   59.7700 C   0  0  0  0  0  0  0  0  0  0  0  0
   24.5600    7.0200   62.6200 C   0  0  0  0  0  0  0  0  0  0  0  0
   25.3000    4.4400   59.6100 C   0  0  0  0  0  0  0  0  0  0  0  0
   25.9900    5.2600   58.5300 C   0  0  0  0  0  0  0  0  0  0  0  0
   26.2400    4.6800   57.2800 C   0  0  0  0  0  0  0  0  0  0  0  0
   26.8400    5.3700   56.2200 C   0  0  0  0  0  0  0  0  0  0  0  0
   27.1800    6.7100   56.4300 C   0  0  0  0  0  0  0  0  0  0  0  0
   27.0600    7.3100   57.6900 C   0  0  0  0  0  0  0  0  0  0  0  0
   26.4700    6.5600   58.7200 C   0  0  0  0  0  0  0  0  0  0  0  0
   24.4600    5.8400   61.8100 O   0  0  0  0  0  0  0  0  0  0  0  0
   22.4300    6.4800   61.0000 O   0  0  0  0  0  0  0  0  0  0  0  0
   23.4600    5.8400   60.8800 C   0  0  0  0  0  0  0  0  0  0  0  0
   25.7300    6.7700   63.5800 C   0  0  0  0  0  0  0  0  0  0  0  0
   19.7800    2.9200   56.9400 C   0  0  0  0  0  0  0  0  0  0  0  0
   23.4400    3.0500   57.5700 O   0  0  0  0  0  0  0  0  0  0  0  0
   18.8200    4.0000   57.4600 C   0  0  0  0  0  0  0  0  0  0  0  0
   19.7400    5.3500   58.3100 S   0  0  0  0  0  0  0  0  0  0  0  0
   20.8400    5.6900   56.8800 C   0  0  0  0  0  0  0  0  0  0  0  0
   21.7500    4.4900   56.5600 C   0  0  0  0  0  0  0  0  0  0  0  0
   20.8900    3.3900   56.1100 N   0  0  0  0  0  0  0  0  0  0  0  0
   21.6600    2.1500   55.2100 S   0  0  0  0  0  0  0  0  0  0  0  0
   20.5000    1.8400   53.8700 C   0  0  0  0  0  0  0  0  0  0  0  0
   19.6200    2.8500   53.4900 C   0  0  0  0  0  0  0  0  0  0  0  0
   18.5300    2.6500   52.6400 C   0  0  0  0  0  0  0  0  0  0  0  0
   18.4000    1.4200   51.9900 C   0  0  0  0  0  0  0  0  0  0  0  0
   19.2900    0.4000   52.3400 C   0  0  0  0  0  0  0  0  0  0  0  0
   20.2600    0.5700   53.3300 C   0  0  0  0  0  0  0  0  0  0  0  0
   21.8400    0.9500   56.0200 O   0  0  0  0  0  0  0  0  0  0  0  0
   22.8000    2.8300   54.5900 O   0  0  0  0  0  0  0  0  0  0  0  0
   17.4200    1.1600   50.8600 C   0  0  0  0  0  0  0  0  0  0  0  0
   22.2900    5.6300   58.7300 H   0  0  0  0  0  0  0  0  0  0  0  0
   24.7400    7.9800   62.1200 H   0  0  0  0  0  0  0  0  0  0  0  0
   23.6600    7.0900   63.2400 H   0  0  0  0  0  0  0  0  0  0  0  0
   25.7900    4.3200   60.5800 H   0  0  0  0  0  0  0  0  0  0  0  0
   25.2000    3.3900   59.3300 H   0  0  0  0  0  0  0  0  0  0  0  0
   25.9200    3.6600   57.1000 H   0  0  0  0  0  0  0  0  0  0  0  0
   27.1200    4.9400   55.2600 H   0  0  0  0  0  0  0  0  0  0  0  0
   27.7300    7.1900   55.6200 H   0  0  0  0  0  0  0  0  0  0  0  0
   27.6000    8.2200   57.9400 H   0  0  0  0  0  0  0  0  0  0  0  0
   26.3300    6.9800   59.7200 H   0  0  0  0  0  0  0  0  0  0  0  0
   26.7300    6.7500   63.1400 H   0  0  0  0  0  0  0  0  0  0  0  0
   25.5600    5.7700   64.0000 H   0  0  0  0  0  0  0  0  0  0  0  0
   25.7200    7.4600   64.4400 H   0  0  0  0  0  0  0  0  0  0  0  0
   20.2100    2.4100   57.8100 H   0  0  0  0  0  0  0  0  0  0  0  0
   19.1700    2.2000   56.3800 H   0  0  0  0  0  0  0  0  0  0  0  0
   18.2500    4.4100   56.6100 H   0  0  0  0  0  0  0  0  0  0  0  0
   18.0900    3.5600   58.1500 H   0  0  0  0  0  0  0  0  0  0  0  0
   20.1400    6.0000   56.0900 H   0  0  0  0  0  0  0  0  0  0  0  0
   21.4000    6.6000   57.1200 H   0  0  0  0  0  0  0  0  0  0  0  0
   22.4300    4.7700   55.7400 H   0  0  0  0  0  0  0  0  0  0  0  0
   19.7100    3.8500   53.9100 H   0  0  0  0  0  0  0  0  0  0  0  0
   17.9000    3.4600   52.3000 H   0  0  0  0  0  0  0  0  0  0  0  0
   19.2300   -0.5100   51.7400 H   0  0  0  0  0  0  0  0  0  0  0  0
   20.7300   -0.3600   53.6400 H   0  0  0  0  0  0  0  0  0  0  0  0
   16.7900    2.0600   50.7600 H   0  0  0  0  0  0  0  0  0  0  0  0
   16.8100    0.2800   51.0600 H   0  0  0  0  0  0  0  0  0  0  0  0
   17.9800    0.9700   49.9400 H   0  0  0  0  0  0  0  0  0  0  0  0
  1  2  1  0  0  0  0
  2  3  4  0  0  0  0
  3  5  1  0  0  0  0
  5  6  1  0  0  0  0
  6  7  4  0  0  0  0
  7  8  4  0  0  0  0
  8  9  4  0  0  0  0
  9 10  4  0  0  0  0
  6 11  4  0  0  0  0
 10 11  4  0  0  0  0
  4 12  1  0  0  0  0
  3 14  1  0  0  0  0
 12 14  1  0  0  0  0
 13 14  2  0  0  0  0
  4 15  1  0  0  0  0
  1 17  2  0  0  0  0
 16 18  1  0  0  0  0
 18 19  1  0  0  0  0
 19 20  1  0  0  0  0
  1 21  1  0  0  0  0
 20 21  1  0  0  0  0
 16 22  1  0  0  0  0
 21 22  1  0  0  0  0
 22 23  1  0  0  0  0
 23 24  1  0  0  0  0
 24 25  4  0  0  0  0
 25 26  4  0  0  0  0
 26 27  4  0  0  0  0
 27 28  4  0  0  0  0
 24 29  4  0  0  0  0
 28 29  4  0  0  0  0
 23 30  2  0  0  0  0
 23 31  2  0  0  0  0
 27 32  1  0  0  0  0
  2 33  1  0  0  0  0
  4 34  1  0  0  0  0
  4 35  1  0  0  0  0
  5 36  1  0  0  0  0
  5 37  1  0  0  0  0
  7 38  1  0  0  0  0
  8 39  1  0  0  0  0
  9 40  1  0  0  0  0
 10 41  1  0  0  0  0
 11 42  1  0  0  0  0
 15 43  1  0  0  0  0
 15 44  1  0  0  0  0
 15 45  1  0  0  0  0
 16 46  1  0  0  0  0
 16 47  1  0  0  0  0
 18 48  1  0  0  0  0
 18 49  1  0  0  0  0
 20 50  1  0  0  0  0
 20 51  1  0  0  0  0
 21 52  1  0  0  0  0
 25 53  1  0  0  0  0
 26 54  1  0  0  0  0
 28 55  1  0  0  0  0
 29 56  1  0  0  0  0
 32 57  1  0  0  0  0
 32 58  1  0  0  0  0
 32 59  1  0  0  0  0
M  CHG  1   1   1
M  END
