 xtb: 6.7.1 (edcfbbe)
          01052609063D

218215  0     0  0            999 V2000
   25.5500   26.5700   38.7100 N   0  0  0  0  0  0  0  0  0  0  0  0
   25.9200   25.9600   39.4200 H   0  0  0  0  0  0  0  0  0  0  0  0
   26.2700   26.4800   37.4500 C   0  0  0  0  0  0  0  0  0  0  0  0
   25.4900   26.6400   36.7100 H   0  0  0  0  0  0  0  0  0  0  0  0
   27.4300   27.4600   37.3300 C   0  0  0  0  0  0  0  0  0  0  0  0
   27.0000   28.4300   37.5500 H   0  0  0  0  0  0  0  0  0  0  0  0
   27.8100   27.5200   36.3100 H   0  0  0  0  0  0  0  0  0  0  0  0
   28.6800   27.2000   38.1300 C   0  0  0  0  0  0  0  0  0  0  0  0
   29.7700   26.5300   37.5600 C   0  0  0  0  0  0  0  0  0  0  0  0
   29.8200   26.3800   36.4900 H   0  0  0  0  0  0  0  0  0  0  0  0
   30.7400   25.9600   38.3900 C   0  0  0  0  0  0  0  0  0  0  0  0
   31.5800   25.4200   37.9800 H   0  0  0  0  0  0  0  0  0  0  0  0
   30.6300   26.1400   39.7900 C   0  0  0  0  0  0  0  0  0  0  0  0
   31.5200   25.4900   40.5900 O   0  0  0  0  0  0  0  0  0  0  0  0
   32.2200   25.0900   40.0700 H   0  0  0  0  0  0  0  0  0  0  0  0
   29.6400   26.9700   40.3400 C   0  0  0  0  0  0  0  0  0  0  0  0
   29.6600   27.0400   41.4200 H   0  0  0  0  0  0  0  0  0  0  0  0
   28.6500   27.4900   39.5000 C   0  0  0  0  0  0  0  0  0  0  0  0
   27.8400   28.0300   39.9700 H   0  0  0  0  0  0  0  0  0  0  0  0
   26.9600   25.1400   37.2300 C   0  0  0  0  0  0  0  0  0  0  0  0
   27.0300   24.2500   38.0800 O   0  0  0  0  0  0  0  0  0  0  0  0
   33.8000   20.0500   32.9000 N   0  0  0  0  0  0  0  0  0  0  0  0
   33.6100   20.8300   32.2900 H   0  0  0  0  0  0  0  0  0  0  0  0
   34.8200   20.2400   33.9200 C   0  0  0  0  0  0  0  0  0  0  0  0
   35.2900   19.2900   34.1400 H   0  0  0  0  0  0  0  0  0  0  0  0
   35.8700   21.2700   33.5200 C   0  0  0  0  0  0  0  0  0  0  0  0
   36.3300   20.9100   32.6000 H   0  0  0  0  0  0  0  0  0  0  0  0
   36.6800   21.3000   34.2400 H   0  0  0  0  0  0  0  0  0  0  0  0
   35.3300   22.6500   33.2100 C   0  0  0  0  0  0  0  0  0  0  0  0
   35.3600   23.0400   31.8600 C   0  0  0  0  0  0  0  0  0  0  0  0
   35.6100   22.3900   31.0400 H   0  0  0  0  0  0  0  0  0  0  0  0
   35.0500   24.3700   31.5500 C   0  0  0  0  0  0  0  0  0  0  0  0
   35.1100   24.8400   30.5800 H   0  0  0  0  0  0  0  0  0  0  0  0
   34.5400   25.1800   32.5700 C   0  0  0  0  0  0  0  0  0  0  0  0
   34.1100   26.1500   32.3400 H   0  0  0  0  0  0  0  0  0  0  0  0
   34.6000   24.7800   33.9100 C   0  0  0  0  0  0  0  0  0  0  0  0
   34.3000   25.4700   34.6800 H   0  0  0  0  0  0  0  0  0  0  0  0
   35.0300   23.5000   34.2800 C   0  0  0  0  0  0  0  0  0  0  0  0
   35.1000   23.1500   35.2900 H   0  0  0  0  0  0  0  0  0  0  0  0
   34.3600   20.3700   35.3600 C   0  0  0  0  0  0  0  0  0  0  0  0
   34.9500   19.8000   36.2800 O   0  0  0  0  0  0  0  0  0  0  0  0
   33.2400   21.0600   35.5900 N   0  0  0  0  0  0  0  0  0  0  0  0
   32.8500   21.6600   34.8800 H   0  0  0  0  0  0  0  0  0  0  0  0
   32.7500   21.1800   36.9500 C   0  0  0  0  0  0  0  0  0  0  0  0
   32.9000   20.1900   37.3800 H   0  0  0  0  0  0  0  0  0  0  0  0
   33.6400   22.2000   37.6500 C   0  0  0  0  0  0  0  0  0  0  0  0
   33.6800   23.0800   37.0000 H   0  0  0  0  0  0  0  0  0  0  0  0
   34.6500   21.8100   37.7900 H   0  0  0  0  0  0  0  0  0  0  0  0
   33.1300   22.6100   39.0200 C   0  0  0  0  0  0  0  0  0  0  0  0
   33.3000   23.8200   39.2900 O   0  0  0  0  0  0  0  0  0  0  0  0
   32.6500   21.7500   39.7900 O   0  0  0  0  0  0  0  0  0  0  0  0
   31.3100   21.6600   37.0800 C   0  0  0  0  0  0  0  0  0  0  0  0
   30.8500   22.4100   36.2300 O   0  0  0  0  0  0  0  0  0  0  0  0
   27.0300   18.7700   42.2400 N   0  0  0  0  0  0  0  0  0  0  0  0
   27.2900   19.5000   41.6000 H   0  0  0  0  0  0  0  0  0  0  0  0
   27.5200   18.8300   43.6100 C   0  0  0  0  0  0  0  0  0  0  0  0
   27.8000   17.8100   43.8900 H   0  0  0  0  0  0  0  0  0  0  0  0
   28.7700   19.6900   43.7200 C   0  0  0  0  0  0  0  0  0  0  0  0
   28.5700   20.5800   43.1200 H   0  0  0  0  0  0  0  0  0  0  0  0
   29.6100   19.2500   43.1900 H   0  0  0  0  0  0  0  0  0  0  0  0
   29.2500   20.2100   45.0800 C   0  0  0  0  0  0  0  0  0  0  0  0
   29.3000   19.4500   45.8600 H   0  0  0  0  0  0  0  0  0  0  0  0
   28.5900   21.0000   45.4300 H   0  0  0  0  0  0  0  0  0  0  0  0
   30.6400   20.8400   44.9800 C   0  0  0  0  0  0  0  0  0  0  0  0
   31.4100   20.0900   44.7800 H   0  0  0  0  0  0  0  0  0  0  0  0
   30.9500   21.3000   45.9200 H   0  0  0  0  0  0  0  0  0  0  0  0
   30.7700   21.8800   43.9600 N   0  0  0  0  0  0  0  0  0  0  0  0
   30.6300   22.8200   44.2800 H   0  0  0  0  0  0  0  0  0  0  0  0
   31.3000   21.7900   42.7300 C   0  0  0  0  0  0  0  0  0  0  0  0
   31.8500   20.7100   42.1600 N   0  0  0  0  0  0  0  0  0  0  0  0
   31.8100   19.8200   42.6300 H   0  0  0  0  0  0  0  0  0  0  0  0
   32.1900   20.8500   41.2200 H   0  0  0  0  0  0  0  0  0  0  0  0
   31.3800   22.8500   41.9200 N   0  0  0  0  0  0  0  0  0  0  0  0
   30.9500   23.7400   42.1500 H   0  0  0  0  0  0  0  0  0  0  0  0
   31.8400   22.7000   41.0400 H   0  0  0  0  0  0  0  0  0  0  0  0
   26.3900   19.2700   44.5200 C   0  0  0  0  0  0  0  0  0  0  0  0
   26.5400   19.1500   45.7300 O   0  0  0  0  0  0  0  0  0  0  0  0
   26.8000   28.3800   44.7400 N   0  0  0  0  0  0  0  0  0  0  0  0
   26.1400   28.6200   44.0100 H   0  0  0  0  0  0  0  0  0  0  0  0
   28.0400   29.1200   44.7400 C   0  0  0  0  0  0  0  0  0  0  0  0
   28.5000   28.8300   45.6900 H   0  0  0  0  0  0  0  0  0  0  0  0
   28.9500   28.5600   43.6600 C   0  0  0  0  0  0  0  0  0  0  0  0
   28.3100   28.5700   42.7700 H   0  0  0  0  0  0  0  0  0  0  0  0
   29.1800   27.5000   43.8200 H   0  0  0  0  0  0  0  0  0  0  0  0
   30.2300   29.3400   43.4400 C   0  0  0  0  0  0  0  0  0  0  0  0
   30.2200   30.5300   42.7000 C   0  0  0  0  0  0  0  0  0  0  0  0
   29.3100   31.0500   42.4200 H   0  0  0  0  0  0  0  0  0  0  0  0
   31.4100   31.2500   42.5900 C   0  0  0  0  0  0  0  0  0  0  0  0
   31.4700   32.1900   42.0500 H   0  0  0  0  0  0  0  0  0  0  0  0
   32.6300   30.7300   43.0300 C   0  0  0  0  0  0  0  0  0  0  0  0
   33.5600   31.2700   42.8900 H   0  0  0  0  0  0  0  0  0  0  0  0
   32.6600   29.5000   43.6900 C   0  0  0  0  0  0  0  0  0  0  0  0
   33.5800   29.0000   43.9300 H   0  0  0  0  0  0  0  0  0  0  0  0
   31.4300   28.9000   44.0000 C   0  0  0  0  0  0  0  0  0  0  0  0
   31.3800   28.0200   44.6300 H   0  0  0  0  0  0  0  0  0  0  0  0
   27.9900   30.6400   44.7700 C   0  0  0  0  0  0  0  0  0  0  0  0
   27.0200   31.1700   44.2300 O   0  0  0  0  0  0  0  0  0  0  0  0
   37.6500   39.1700   42.5300 N   0  0  0  0  0  0  0  0  0  0  0  0
   36.9100   39.7000   42.0700 H   0  0  0  0  0  0  0  0  0  0  0  0
   38.5500   38.3800   41.7200 C   0  0  0  0  0  0  0  0  0  0  0  0
   38.0800   38.2700   40.7400 H   0  0  0  0  0  0  0  0  0  0  0  0
   39.8400   39.1400   41.4600 C   0  0  0  0  0  0  0  0  0  0  0  0
   40.4200   38.7300   40.6300 H   0  0  0  0  0  0  0  0  0  0  0  0
   40.4600   38.9900   42.3400 H   0  0  0  0  0  0  0  0  0  0  0  0
   39.8400   40.6500   41.1900 C   0  0  0  0  0  0  0  0  0  0  0  0
   40.8100   41.0600   41.4600 H   0  0  0  0  0  0  0  0  0  0  0  0
   39.1300   41.1300   41.8700 H   0  0  0  0  0  0  0  0  0  0  0  0
   39.6000   40.9800   39.7300 C   0  0  0  0  0  0  0  0  0  0  0  0
   40.4800   41.2900   38.9300 O   0  0  0  0  0  0  0  0  0  0  0  0
   38.3200   41.0600   39.3500 N   0  0  0  0  0  0  0  0  0  0  0  0
   37.5700   40.6900   39.9300 H   0  0  0  0  0  0  0  0  0  0  0  0
   38.2400   41.1400   38.3500 H   0  0  0  0  0  0  0  0  0  0  0  0
   38.7700   36.9200   42.0900 C   0  0  0  0  0  0  0  0  0  0  0  0
   39.8800   36.4100   41.9200 O   0  0  0  0  0  0  0  0  0  0  0  0
   37.7700   36.2700   42.6800 N   0  0  0  0  0  0  0  0  0  0  0  0
   36.8900   36.7500   42.7700 H   0  0  0  0  0  0  0  0  0  0  0  0
   37.7600   34.8700   43.0700 C   0  0  0  0  0  0  0  0  0  0  0  0
   38.8000   34.6600   43.3300 H   0  0  0  0  0  0  0  0  0  0  0  0
   37.0700   34.6200   44.4000 C   0  0  0  0  0  0  0  0  0  0  0  0
   37.3100   35.5100   44.9900 H   0  0  0  0  0  0  0  0  0  0  0  0
   37.5100   33.7500   44.9000 H   0  0  0  0  0  0  0  0  0  0  0  0
   35.5500   34.4700   44.4000 C   0  0  0  0  0  0  0  0  0  0  0  0
   35.3400   33.4200   44.1900 H   0  0  0  0  0  0  0  0  0  0  0  0
   35.1300   35.1300   43.6400 H   0  0  0  0  0  0  0  0  0  0  0  0
   35.0200   34.7400   45.8000 C   0  0  0  0  0  0  0  0  0  0  0  0
   35.6100   34.2400   46.7800 O   0  0  0  0  0  0  0  0  0  0  0  0
   34.1500   35.5800   46.1300 O   0  0  0  0  0  0  0  0  0  0  0  0
   37.3200   33.9000   41.9800 C   0  0  0  0  0  0  0  0  0  0  0  0
   37.1400   32.7200   42.2700 O   0  0  0  0  0  0  0  0  0  0  0  0
   37.1600   34.4200   40.7600 N   0  0  0  0  0  0  0  0  0  0  0  0
   37.4700   35.3800   40.6800 H   0  0  0  0  0  0  0  0  0  0  0  0
   36.6400   33.7000   39.6200 C   0  0  0  0  0  0  0  0  0  0  0  0
   36.9000   32.6400   39.6000 H   0  0  0  0  0  0  0  0  0  0  0  0
   35.1200   33.6000   39.6300 C   0  0  0  0  0  0  0  0  0  0  0  0
   34.8100   33.1800   38.6700 H   0  0  0  0  0  0  0  0  0  0  0  0
   34.5600   32.5900   40.6300 C   0  0  0  0  0  0  0  0  0  0  0  0
   35.0900   31.6500   40.7700 H   0  0  0  0  0  0  0  0  0  0  0  0
   34.6700   32.9900   41.6300 H   0  0  0  0  0  0  0  0  0  0  0  0
   33.5000   32.4500   40.4200 H   0  0  0  0  0  0  0  0  0  0  0  0
   34.3700   34.9200   39.7500 C   0  0  0  0  0  0  0  0  0  0  0  0
   34.7200   35.6700   39.0400 H   0  0  0  0  0  0  0  0  0  0  0  0
   33.2900   34.7900   39.6800 H   0  0  0  0  0  0  0  0  0  0  0  0
   34.6500   35.3100   40.7400 H   0  0  0  0  0  0  0  0  0  0  0  0
   37.2400   34.4100   38.4100 C   0  0  0  0  0  0  0  0  0  0  0  0
   37.9200   35.4200   38.5500 O   0  0  0  0  0  0  0  0  0  0  0  0
   41.7800   31.0100   31.7500 N   0  0  0  0  0  0  0  0  0  0  0  0
   41.1100   30.3400   31.4000 H   0  0  0  0  0  0  0  0  0  0  0  0
   42.9900   30.4400   32.3100 C   0  0  0  0  0  0  0  0  0  0  0  0
   43.3100   31.0300   33.1600 H   0  0  0  0  0  0  0  0  0  0  0  0
   42.7100   29.0500   32.8800 C   0  0  0  0  0  0  0  0  0  0  0  0
   43.6700   28.7300   33.2800 H   0  0  0  0  0  0  0  0  0  0  0  0
   42.5200   28.3600   32.0600 H   0  0  0  0  0  0  0  0  0  0  0  0
   41.6200   28.9100   33.9300 C   0  0  0  0  0  0  0  0  0  0  0  0
   40.4700   28.1800   33.6100 C   0  0  0  0  0  0  0  0  0  0  0  0
   40.4100   27.6700   32.6600 H   0  0  0  0  0  0  0  0  0  0  0  0
   39.4400   28.0600   34.5600 C   0  0  0  0  0  0  0  0  0  0  0  0
   38.4700   27.6500   34.3200 H   0  0  0  0  0  0  0  0  0  0  0  0
   39.5800   28.6400   35.8300 C   0  0  0  0  0  0  0  0  0  0  0  0
   38.5200   28.8600   36.6600 O   0  0  0  0  0  0  0  0  0  0  0  0
   38.6900   29.5600   37.3000 H   0  0  0  0  0  0  0  0  0  0  0  0
   40.7700   29.3500   36.0800 C   0  0  0  0  0  0  0  0  0  0  0  0
   40.7400   29.7700   37.0800 H   0  0  0  0  0  0  0  0  0  0  0  0
   41.8000   29.5500   35.1600 C   0  0  0  0  0  0  0  0  0  0  0  0
   42.6900   30.1000   35.4300 H   0  0  0  0  0  0  0  0  0  0  0  0
   44.1600   30.4600   31.3300 C   0  0  0  0  0  0  0  0  0  0  0  0
   45.3000   30.6600   31.7400 O   0  0  0  0  0  0  0  0  0  0  0  0
   44.7800   24.2200   32.8200 N   0  0  0  0  0  0  0  0  0  0  0  0
   44.6900   23.6000   32.0300 H   0  0  0  0  0  0  0  0  0  0  0  0
   44.9000   23.4800   34.0600 C   0  0  0  0  0  0  0  0  0  0  0  0
   45.7600   23.8300   34.6300 H   0  0  0  0  0  0  0  0  0  0  0  0
   43.6600   23.6600   34.9400 C   0  0  0  0  0  0  0  0  0  0  0  0
   42.8600   23.0400   34.5500 H   0  0  0  0  0  0  0  0  0  0  0  0
   43.4400   24.7100   35.0900 H   0  0  0  0  0  0  0  0  0  0  0  0
   43.9400   23.1800   36.3400 C   0  0  0  0  0  0  0  0  0  0  0  0
   44.7200   23.9000   37.2500 N   0  0  0  0  0  0  0  0  0  0  0  0
   44.9000   23.1700   38.3600 C   0  0  0  0  0  0  0  0  0  0  0  0
   45.5100   23.5300   39.1700 H   0  0  0  0  0  0  0  0  0  0  0  0
   44.2500   22.0100   38.2100 N   0  0  0  0  0  0  0  0  0  0  0  0
   44.2800   21.2600   38.8900 H   0  0  0  0  0  0  0  0  0  0  0  0
   43.7900   21.9400   36.9100 C   0  0  0  0  0  0  0  0  0  0  0  0
   43.4300   21.0600   36.4000 H   0  0  0  0  0  0  0  0  0  0  0  0
   45.0000   21.9900   33.8000 C   0  0  0  0  0  0  0  0  0  0  0  0
   44.1400   21.4800   33.0800 O   0  0  0  0  0  0  0  0  0  0  0  0
   42.1900   18.3700   32.9100 N   0  0  0  0  0  0  0  0  0  0  0  0
   42.9000   19.0800   32.9700 H   0  0  0  0  0  0  0  0  0  0  0  0
   40.8600   18.9500   32.7900 C   0  0  0  0  0  0  0  0  0  0  0  0
   40.1700   18.2100   32.3800 H   0  0  0  0  0  0  0  0  0  0  0  0
   40.3400   19.4000   34.1500 C   0  0  0  0  0  0  0  0  0  0  0  0
   40.5300   18.5800   34.8300 H   0  0  0  0  0  0  0  0  0  0  0  0
   40.9400   20.6900   34.7000 C   0  0  0  0  0  0  0  0  0  0  0  0
   40.7000   21.0200   35.7100 H   0  0  0  0  0  0  0  0  0  0  0  0
   42.0300   20.6500   34.6400 H   0  0  0  0  0  0  0  0  0  0  0  0
   40.5500   21.4800   34.0500 H   0  0  0  0  0  0  0  0  0  0  0  0
   38.8200   19.5800   34.1600 C   0  0  0  0  0  0  0  0  0  0  0  0
   38.4100   20.0100   33.2500 H   0  0  0  0  0  0  0  0  0  0  0  0
   38.6200   20.3000   34.9500 H   0  0  0  0  0  0  0  0  0  0  0  0
   38.1200   18.2300   34.2800 C   0  0  0  0  0  0  0  0  0  0  0  0
   38.2400   17.9600   35.3300 H   0  0  0  0  0  0  0  0  0  0  0  0
   37.0600   18.4500   34.2000 H   0  0  0  0  0  0  0  0  0  0  0  0
   38.5100   17.4800   33.5900 H   0  0  0  0  0  0  0  0  0  0  0  0
   40.7000   20.0400   31.7400 C   0  0  0  0  0  0  0  0  0  0  0  0
   39.6800   20.0700   31.0500 O   0  0  0  0  0  0  0  0  0  0  0  0
   24.8670   27.2980   38.8620 H   0  0  0  0  0  0  0  0  0  0  0  0
   27.1910   24.9340   36.1740 H   0  0  0  0  0  0  0  0  0  0  0  0
   33.2760   19.2000   32.7480 H   0  0  0  0  0  0  0  0  0  0  0  0
   30.6930   21.1910   37.8610 H   0  0  0  0  0  0  0  0  0  0  0  0
   26.4680   18.0030   41.8980 H   0  0  0  0  0  0  0  0  0  0  0  0
   25.3830   19.5340   44.1650 H   0  0  0  0  0  0  0  0  0  0  0  0
   26.5290   27.7470   45.4790 H   0  0  0  0  0  0  0  0  0  0  0  0
   28.7910   31.2590   45.1990 H   0  0  0  0  0  0  0  0  0  0  0  0
   37.7410   39.3130   43.5260 H   0  0  0  0  0  0  0  0  0  0  0  0
   37.2070   33.9180   37.4270 H   0  0  0  0  0  0  0  0  0  0  0  0
   41.5360   31.9840   31.8570 H   0  0  0  0  0  0  0  0  0  0  0  0
   43.9780   30.3770   30.2480 H   0  0  0  0  0  0  0  0  0  0  0  0
   45.0590   25.1690   32.6170 H   0  0  0  0  0  0  0  0  0  0  0  0
   45.7620   21.3430   34.2590 H   0  0  0  0  0  0  0  0  0  0  0  0
   42.4320   17.3920   32.9860 H   0  0  0  0  0  0  0  0  0  0  0  0
   41.4160   20.8720   31.6660 H   0  0  0  0  0  0  0  0  0  0  0  0
  1  2  1  0  0  0  0
  1  3  1  0  0  0  0
  3  4  1  0  0  0  0
  3  5  1  0  0  0  0
  5  6  1  0  0  0  0
  5  7  1  0  0  0  0
  5  8  1  0  0  0  0
  8  9  4  0  0  0  0
  9 10  1  0  0  0  0
  9 11  4  0  0  0  0
 11 12  1  0  0  0  0
 11 13  4  0  0  0  0
 13 14  1  0  0  0  0
 14 15  1  0  0  0  0
 13 16  4  0  0  0  0
 16 17  1  0  0  0  0
  8 18  4  0  0  0  0
 16 18  4  0  0  0  0
 18 19  1  0  0  0  0
  3 20  1  0  0  0  0
 20 21  2  0  0  0  0
 22 23  1  0  0  0  0
 22 24  1  0  0  0  0
 24 25  1  0  0  0  0
 24 26  1  0  0  0  0
 26 27  1  0  0  0  0
 26 28  1  0  0  0  0
 26 29  1  0  0  0  0
 29 30  4  0  0  0  0
 30 31  1  0  0  0  0
 30 32  4  0  0  0  0
 32 33  1  0  0  0  0
 32 34  4  0  0  0  0
 34 35  1  0  0  0  0
 34 36  4  0  0  0  0
 36 37  1  0  0  0  0
 29 38  4  0  0  0  0
 36 38  4  0  0  0  0
 38 39  1  0  0  0  0
 24 40  1  0  0  0  0
 40 41  2  0  0  0  0
 40 42  4  0  0  0  0
 42 43  1  0  0  0  0
 42 44  1  0  0  0  0
 44 45  1  0  0  0  0
 44 46  1  0  0  0  0
 46 47  1  0  0  0  0
 46 48  1  0  0  0  0
 46 49  1  0  0  0  0
 49 50  4  0  0  0  0
 49 51  4  0  0  0  0
 44 52  1  0  0  0  0
 52 53  2  0  0  0  0
 54 55  1  0  0  0  0
 54 56  1  0  0  0  0
 56 57  1  0  0  0  0
 56 58  1  0  0  0  0
 58 59  1  0  0  0  0
 58 60  1  0  0  0  0
 58 61  1  0  0  0  0
 61 62  1  0  0  0  0
 61 63  1  0  0  0  0
 61 64  1  0  0  0  0
 64 65  1  0  0  0  0
 64 66  1  0  0  0  0
 64 67  1  0  0  0  0
 67 68  1  0  0  0  0
 67 69  4  0  0  0  0
 69 70  4  0  0  0  0
 70 71  1  0  0  0  0
 70 72  1  0  0  0  0
 69 73  4  0  0  0  0
 73 74  1  0  0  0  0
 73 75  1  0  0  0  0
 56 76  1  0  0  0  0
 76 77  2  0  0  0  0
 78 79  1  0  0  0  0
 78 80  1  0  0  0  0
 80 81  1  0  0  0  0
 80 82  1  0  0  0  0
 82 83  1  0  0  0  0
 82 84  1  0  0  0  0
 82 85  1  0  0  0  0
 85 86  4  0  0  0  0
 86 87  1  0  0  0  0
 86 88  4  0  0  0  0
 88 89  1  0  0  0  0
 88 90  4  0  0  0  0
 90 91  1  0  0  0  0
 90 92  4  0  0  0  0
 92 93  1  0  0  0  0
 85 94  4  0  0  0  0
 92 94  4  0  0  0  0
 94 95  1  0  0  0  0
 80 96  1  0  0  0  0
 96 97  2  0  0  0  0
 98 99  1  0  0  0  0
 98100  1  0  0  0  0
100101  1  0  0  0  0
100102  1  0  0  0  0
102103  1  0  0  0  0
102104  1  0  0  0  0
102105  1  0  0  0  0
105106  1  0  0  0  0
105107  1  0  0  0  0
105108  1  0  0  0  0
108109  2  0  0  0  0
108110  4  0  0  0  0
110111  1  0  0  0  0
110112  1  0  0  0  0
100113  1  0  0  0  0
113114  2  0  0  0  0
113115  4  0  0  0  0
115116  1  0  0  0  0
115117  1  0  0  0  0
117118  1  0  0  0  0
117119  1  0  0  0  0
119120  1  0  0  0  0
119121  1  0  0  0  0
119122  1  0  0  0  0
122123  1  0  0  0  0
122124  1  0  0  0  0
122125  1  0  0  0  0
125126  4  0  0  0  0
125127  4  0  0  0  0
117128  1  0  0  0  0
128129  2  0  0  0  0
128130  4  0  0  0  0
130131  1  0  0  0  0
130132  1  0  0  0  0
132133  1  0  0  0  0
132134  1  0  0  0  0
134135  1  0  0  0  0
134136  1  0  0  0  0
136137  1  0  0  0  0
136138  1  0  0  0  0
136139  1  0  0  0  0
134140  1  0  0  0  0
140141  1  0  0  0  0
140142  1  0  0  0  0
140143  1  0  0  0  0
132144  1  0  0  0  0
144145  2  0  0  0  0
146147  1  0  0  0  0
146148  1  0  0  0  0
148149  1  0  0  0  0
148150  1  0  0  0  0
150151  1  0  0  0  0
150152  1  0  0  0  0
150153  1  0  0  0  0
153154  4  0  0  0  0
154155  1  0  0  0  0
154156  4  0  0  0  0
156157  1  0  0  0  0
156158  4  0  0  0  0
158159  1  0  0  0  0
159160  1  0  0  0  0
158161  4  0  0  0  0
161162  1  0  0  0  0
153163  4  0  0  0  0
161163  4  0  0  0  0
163164  1  0  0  0  0
148165  1  0  0  0  0
165166  2  0  0  0  0
167168  1  0  0  0  0
167169  1  0  0  0  0
169170  1  0  0  0  0
169171  1  0  0  0  0
171172  1  0  0  0  0
171173  1  0  0  0  0
171174  1  0  0  0  0
174175  4  0  0  0  0
175176  2  0  0  0  0
176177  1  0  0  0  0
176178  4  0  0  0  0
178179  1  0  0  0  0
174180  2  0  0  0  0
178180  4  0  0  0  0
180181  1  0  0  0  0
169182  1  0  0  0  0
182183  2  0  0  0  0
184185  1  0  0  0  0
184186  1  0  0  0  0
186187  1  0  0  0  0
186188  1  0  0  0  0
188189  1  0  0  0  0
188190  1  0  0  0  0
190191  1  0  0  0  0
190192  1  0  0  0  0
190193  1  0  0  0  0
188194  1  0  0  0  0
194195  1  0  0  0  0
194196  1  0  0  0  0
194197  1  0  0  0  0
197198  1  0  0  0  0
197199  1  0  0  0  0
197200  1  0  0  0  0
186201  1  0  0  0  0
201202  2  0  0  0  0
  1203  1  0  0  0  0
 20204  1  0  0  0  0
 22205  1  0  0  0  0
 52206  1  0  0  0  0
 54207  1  0  0  0  0
 76208  1  0  0  0  0
 78209  1  0  0  0  0
 96210  1  0  0  0  0
 98211  1  0  0  0  0
144212  1  0  0  0  0
146213  1  0  0  0  0
165214  1  0  0  0  0
167215  1  0  0  0  0
182216  1  0  0  0  0
184217  1  0  0  0  0
201218  1  0  0  0  0
M  CHG  1   1  -1
M  END
