 xtb: 6.7.1 (edcfbbe)
          01052609063D

185182  0     0  0            999 V2000
   25.1700   25.5800   35.7000 N   0  0  0  0  0  0  0  0  0  0  0  0
   25.2100   25.4300   36.7000 H   0  0  0  0  0  0  0  0  0  0  0  0
   26.4100   25.4900   34.9700 C   0  0  0  0  0  0  0  0  0  0  0  0
   26.2700   25.7200   33.9100 H   0  0  0  0  0  0  0  0  0  0  0  0
   27.3600   26.6200   35.3500 C   0  0  0  0  0  0  0  0  0  0  0  0
   26.7800   27.5400   35.4200 H   0  0  0  0  0  0  0  0  0  0  0  0
   27.9900   26.9200   34.5100 H   0  0  0  0  0  0  0  0  0  0  0  0
   28.2900   26.3800   36.5200 C   0  0  0  0  0  0  0  0  0  0  0  0
   29.2600   25.3800   36.5400 C   0  0  0  0  0  0  0  0  0  0  0  0
   29.3500   24.7400   35.6700 H   0  0  0  0  0  0  0  0  0  0  0  0
   30.0500   25.1400   37.6700 C   0  0  0  0  0  0  0  0  0  0  0  0
   30.9100   24.5000   37.5500 H   0  0  0  0  0  0  0  0  0  0  0  0
   29.9700   26.0300   38.7600 C   0  0  0  0  0  0  0  0  0  0  0  0
   30.9300   25.9200   39.7300 O   0  0  0  0  0  0  0  0  0  0  0  0
   31.3500   25.0600   39.6600 H   0  0  0  0  0  0  0  0  0  0  0  0
   29.0900   27.1300   38.7200 C   0  0  0  0  0  0  0  0  0  0  0  0
   29.0600   27.8600   39.5100 H   0  0  0  0  0  0  0  0  0  0  0  0
   28.2700   27.2800   37.5900 C   0  0  0  0  0  0  0  0  0  0  0  0
   27.7300   28.2100   37.5300 H   0  0  0  0  0  0  0  0  0  0  0  0
   26.9400   24.0600   35.0500 C   0  0  0  0  0  0  0  0  0  0  0  0
   26.8600   23.4900   36.1300 O   0  0  0  0  0  0  0  0  0  0  0  0
   35.4100   19.7000   35.1600 N   0  0  0  0  0  0  0  0  0  0  0  0
   34.6400   20.2800   34.8600 H   0  0  0  0  0  0  0  0  0  0  0  0
   35.9600   19.8700   36.4900 C   0  0  0  0  0  0  0  0  0  0  0  0
   36.5700   19.0200   36.8100 H   0  0  0  0  0  0  0  0  0  0  0  0
   36.9500   21.0300   36.4500 C   0  0  0  0  0  0  0  0  0  0  0  0
   37.7000   20.8900   35.6700 H   0  0  0  0  0  0  0  0  0  0  0  0
   37.6100   21.0200   37.3200 H   0  0  0  0  0  0  0  0  0  0  0  0
   36.3800   22.4300   36.3900 C   0  0  0  0  0  0  0  0  0  0  0  0
   36.5400   23.2200   35.2500 C   0  0  0  0  0  0  0  0  0  0  0  0
   37.2200   22.8600   34.5000 H   0  0  0  0  0  0  0  0  0  0  0  0
   35.9600   24.4900   35.1100 C   0  0  0  0  0  0  0  0  0  0  0  0
   36.2700   25.1000   34.2700 H   0  0  0  0  0  0  0  0  0  0  0  0
   35.2800   25.0300   36.2000 C   0  0  0  0  0  0  0  0  0  0  0  0
   34.8500   26.0300   36.1600 H   0  0  0  0  0  0  0  0  0  0  0  0
   35.1100   24.3000   37.3800 C   0  0  0  0  0  0  0  0  0  0  0  0
   34.5600   24.7800   38.1800 H   0  0  0  0  0  0  0  0  0  0  0  0
   35.6600   23.0200   37.4400 C   0  0  0  0  0  0  0  0  0  0  0  0
   35.7800   22.5500   38.4000 H   0  0  0  0  0  0  0  0  0  0  0  0
   34.8300   20.0500   37.4900 C   0  0  0  0  0  0  0  0  0  0  0  0
   34.8800   19.7500   38.6800 O   0  0  0  0  0  0  0  0  0  0  0  0
   33.6300   20.5300   37.1600 N   0  0  0  0  0  0  0  0  0  0  0  0
   33.5700   20.9100   36.2200 H   0  0  0  0  0  0  0  0  0  0  0  0
   32.4700   20.6200   38.0300 C   0  0  0  0  0  0  0  0  0  0  0  0
   32.4800   19.8700   38.8200 H   0  0  0  0  0  0  0  0  0  0  0  0
   32.7000   21.9500   38.7500 C   0  0  0  0  0  0  0  0  0  0  0  0
   32.7100   22.7500   38.0100 H   0  0  0  0  0  0  0  0  0  0  0  0
   33.7200   21.9400   39.1300 H   0  0  0  0  0  0  0  0  0  0  0  0
   31.7900   22.2400   39.9300 C   0  0  0  0  0  0  0  0  0  0  0  0
   31.5000   23.4300   40.1800 O   0  0  0  0  0  0  0  0  0  0  0  0
   31.3800   21.3300   40.6800 O   0  0  0  0  0  0  0  0  0  0  0  0
   31.1300   20.7600   37.3200 C   0  0  0  0  0  0  0  0  0  0  0  0
   31.1000   20.8400   36.0900 O   0  0  0  0  0  0  0  0  0  0  0  0
   25.5700   19.6500   42.3000 N   0  0  0  0  0  0  0  0  0  0  0  0
   25.7500   20.3100   41.5500 H   0  0  0  0  0  0  0  0  0  0  0  0
   25.0800   20.1300   43.5800 C   0  0  0  0  0  0  0  0  0  0  0  0
   25.4600   19.5200   44.4000 H   0  0  0  0  0  0  0  0  0  0  0  0
   25.7100   21.4600   43.9700 C   0  0  0  0  0  0  0  0  0  0  0  0
   25.2000   21.9300   44.8100 H   0  0  0  0  0  0  0  0  0  0  0  0
   25.5200   22.0500   43.0700 H   0  0  0  0  0  0  0  0  0  0  0  0
   27.2200   21.4600   44.2300 C   0  0  0  0  0  0  0  0  0  0  0  0
   27.7000   21.1300   43.3000 H   0  0  0  0  0  0  0  0  0  0  0  0
   27.5300   20.7300   44.9800 H   0  0  0  0  0  0  0  0  0  0  0  0
   27.8200   22.8300   44.5200 C   0  0  0  0  0  0  0  0  0  0  0  0
   28.6600   22.7800   45.2100 H   0  0  0  0  0  0  0  0  0  0  0  0
   27.1000   23.3800   45.1300 H   0  0  0  0  0  0  0  0  0  0  0  0
   28.0100   23.5100   43.2400 N   0  0  0  0  0  0  0  0  0  0  0  0
   27.2500   24.1100   42.9300 H   0  0  0  0  0  0  0  0  0  0  0  0
   29.1000   23.5500   42.4600 C   0  0  0  0  0  0  0  0  0  0  0  0
   30.1800   22.7800   42.6600 N   0  0  0  0  0  0  0  0  0  0  0  0
   30.2600   22.2400   43.5100 H   0  0  0  0  0  0  0  0  0  0  0  0
   30.9700   22.7600   42.0200 H   0  0  0  0  0  0  0  0  0  0  0  0
   29.1500   24.4100   41.4400 N   0  0  0  0  0  0  0  0  0  0  0  0
   28.4100   25.0700   41.2600 H   0  0  0  0  0  0  0  0  0  0  0  0
   30.0400   24.5300   40.9700 H   0  0  0  0  0  0  0  0  0  0  0  0
   23.5800   20.3000   43.7300 C   0  0  0  0  0  0  0  0  0  0  0  0
   22.9800   20.5600   44.7700 O   0  0  0  0  0  0  0  0  0  0  0  0
   23.2900   27.7600   41.1000 N   0  0  0  0  0  0  0  0  0  0  0  0
   23.1300   27.5000   40.1400 H   0  0  0  0  0  0  0  0  0  0  0  0
   24.1200   28.9200   41.3600 C   0  0  0  0  0  0  0  0  0  0  0  0
   24.5500   28.6700   42.3300 H   0  0  0  0  0  0  0  0  0  0  0  0
   25.2300   28.8900   40.3100 C   0  0  0  0  0  0  0  0  0  0  0  0
   24.8000   29.2200   39.3600 H   0  0  0  0  0  0  0  0  0  0  0  0
   25.5800   27.8800   40.1100 H   0  0  0  0  0  0  0  0  0  0  0  0
   26.4000   29.7700   40.6800 C   0  0  0  0  0  0  0  0  0  0  0  0
   26.9100   30.7700   39.8500 C   0  0  0  0  0  0  0  0  0  0  0  0
   26.4000   31.0300   38.9300 H   0  0  0  0  0  0  0  0  0  0  0  0
   28.0900   31.4800   40.1300 C   0  0  0  0  0  0  0  0  0  0  0  0
   28.4600   32.2800   39.5100 H   0  0  0  0  0  0  0  0  0  0  0  0
   28.8000   31.1600   41.2900 C   0  0  0  0  0  0  0  0  0  0  0  0
   29.7400   31.6700   41.4400 H   0  0  0  0  0  0  0  0  0  0  0  0
   28.3000   30.1500   42.1300 C   0  0  0  0  0  0  0  0  0  0  0  0
   28.9500   29.9900   42.9700 H   0  0  0  0  0  0  0  0  0  0  0  0
   27.1300   29.4400   41.8200 C   0  0  0  0  0  0  0  0  0  0  0  0
   26.7500   28.6700   42.4700 H   0  0  0  0  0  0  0  0  0  0  0  0
   23.3300   30.2200   41.4900 C   0  0  0  0  0  0  0  0  0  0  0  0
   22.3000   30.3900   40.8400 O   0  0  0  0  0  0  0  0  0  0  0  0
   30.4200   39.6700   43.5300 N   0  0  0  0  0  0  0  0  0  0  0  0
   29.5700   39.7800   42.9800 H   0  0  0  0  0  0  0  0  0  0  0  0
   30.4000   38.6700   44.5700 C   0  0  0  0  0  0  0  0  0  0  0  0
   31.2100   38.8400   45.2800 H   0  0  0  0  0  0  0  0  0  0  0  0
   29.1000   38.7500   45.3700 C   0  0  0  0  0  0  0  0  0  0  0  0
   28.9300   39.7900   45.6500 H   0  0  0  0  0  0  0  0  0  0  0  0
   29.2200   38.1500   46.2800 H   0  0  0  0  0  0  0  0  0  0  0  0
   27.9000   38.2000   44.6200 C   0  0  0  0  0  0  0  0  0  0  0  0
   28.0400   37.1500   44.3400 H   0  0  0  0  0  0  0  0  0  0  0  0
   27.6500   38.7600   43.7200 H   0  0  0  0  0  0  0  0  0  0  0  0
   26.6200   38.2000   45.4500 C   0  0  0  0  0  0  0  0  0  0  0  0
   26.4900   38.9200   46.4700 O   0  0  0  0  0  0  0  0  0  0  0  0
   25.7200   37.4400   45.0400 O   0  0  0  0  0  0  0  0  0  0  0  0
   30.6000   37.2500   44.0600 C   0  0  0  0  0  0  0  0  0  0  0  0
   30.7300   36.2900   44.8200 O   0  0  0  0  0  0  0  0  0  0  0  0
   39.4300   32.9900   37.4600 N   0  0  0  0  0  0  0  0  0  0  0  0
   39.3700   32.1800   36.8700 H   0  0  0  0  0  0  0  0  0  0  0  0
   40.2900   32.8400   38.6200 C   0  0  0  0  0  0  0  0  0  0  0  0
   39.8200   33.3500   39.4600 H   0  0  0  0  0  0  0  0  0  0  0  0
   40.3300   31.3300   38.8500 C   0  0  0  0  0  0  0  0  0  0  0  0
   41.1600   31.1700   39.5400 H   0  0  0  0  0  0  0  0  0  0  0  0
   40.5000   30.7300   37.9600 H   0  0  0  0  0  0  0  0  0  0  0  0
   39.0400   30.8100   39.4400 C   0  0  0  0  0  0  0  0  0  0  0  0
   38.1400   30.0900   38.6400 C   0  0  0  0  0  0  0  0  0  0  0  0
   38.2400   30.0500   37.5700 H   0  0  0  0  0  0  0  0  0  0  0  0
   37.1300   29.3900   39.3100 C   0  0  0  0  0  0  0  0  0  0  0  0
   36.4300   28.8100   38.7300 H   0  0  0  0  0  0  0  0  0  0  0  0
   36.9200   29.4100   40.7000 C   0  0  0  0  0  0  0  0  0  0  0  0
   35.8400   28.7200   41.1700 O   0  0  0  0  0  0  0  0  0  0  0  0
   35.6000   29.0900   42.0200 H   0  0  0  0  0  0  0  0  0  0  0  0
   37.7700   30.2500   41.4500 C   0  0  0  0  0  0  0  0  0  0  0  0
   37.7500   30.4300   42.5100 H   0  0  0  0  0  0  0  0  0  0  0  0
   38.8800   30.8500   40.8300 C   0  0  0  0  0  0  0  0  0  0  0  0
   39.6800   31.2900   41.4100 H   0  0  0  0  0  0  0  0  0  0  0  0
   41.7400   33.2500   38.4600 C   0  0  0  0  0  0  0  0  0  0  0  0
   42.4500   33.4100   39.4500 O   0  0  0  0  0  0  0  0  0  0  0  0
   42.3100   27.6900   41.3200 N   0  0  0  0  0  0  0  0  0  0  0  0
   42.8500   27.0300   40.7800 H   0  0  0  0  0  0  0  0  0  0  0  0
   41.5600   27.2000   42.4600 C   0  0  0  0  0  0  0  0  0  0  0  0
   41.6100   27.9200   43.2800 H   0  0  0  0  0  0  0  0  0  0  0  0
   40.0800   27.1800   42.1000 C   0  0  0  0  0  0  0  0  0  0  0  0
   39.9000   26.5800   41.2000 H   0  0  0  0  0  0  0  0  0  0  0  0
   39.8000   28.2200   41.9700 H   0  0  0  0  0  0  0  0  0  0  0  0
   39.2000   26.6400   43.2000 C   0  0  0  0  0  0  0  0  0  0  0  0
   39.5700   26.7500   44.5400 N   0  0  0  0  0  0  0  0  0  0  0  0
   38.5700   26.1700   45.2100 C   0  0  0  0  0  0  0  0  0  0  0  0
   38.5400   26.1100   46.2900 H   0  0  0  0  0  0  0  0  0  0  0  0
   37.6100   25.7400   44.3800 N   0  0  0  0  0  0  0  0  0  0  0  0
   36.7500   25.3400   44.7300 H   0  0  0  0  0  0  0  0  0  0  0  0
   38.0300   25.9500   43.0900 C   0  0  0  0  0  0  0  0  0  0  0  0
   37.4900   25.6900   42.1800 H   0  0  0  0  0  0  0  0  0  0  0  0
   42.1300   25.8400   42.8300 C   0  0  0  0  0  0  0  0  0  0  0  0
   41.9300   24.9500   42.0200 O   0  0  0  0  0  0  0  0  0  0  0  0
   41.6400   21.8800   41.4600 N   0  0  0  0  0  0  0  0  0  0  0  0
   41.8800   22.8000   41.8100 H   0  0  0  0  0  0  0  0  0  0  0  0
   40.6900   21.7200   40.3800 C   0  0  0  0  0  0  0  0  0  0  0  0
   40.8000   20.7000   40.0200 H   0  0  0  0  0  0  0  0  0  0  0  0
   39.3300   21.8800   41.0500 C   0  0  0  0  0  0  0  0  0  0  0  0
   39.3100   21.0800   41.7900 H   0  0  0  0  0  0  0  0  0  0  0  0
   38.9400   23.2100   41.6800 C   0  0  0  0  0  0  0  0  0  0  0  0
   38.0100   23.1400   42.2600 H   0  0  0  0  0  0  0  0  0  0  0  0
   39.7500   23.6000   42.2900 H   0  0  0  0  0  0  0  0  0  0  0  0
   38.7900   24.0100   40.9600 H   0  0  0  0  0  0  0  0  0  0  0  0
   38.1800   21.4600   40.1400 C   0  0  0  0  0  0  0  0  0  0  0  0
   38.0600   22.0600   39.2300 H   0  0  0  0  0  0  0  0  0  0  0  0
   37.2500   21.5600   40.7000 H   0  0  0  0  0  0  0  0  0  0  0  0
   38.2900   19.9800   39.8100 C   0  0  0  0  0  0  0  0  0  0  0  0
   39.0000   20.0200   38.9900 H   0  0  0  0  0  0  0  0  0  0  0  0
   38.6600   19.3700   40.6400 H   0  0  0  0  0  0  0  0  0  0  0  0
   37.3200   19.5500   39.5600 H   0  0  0  0  0  0  0  0  0  0  0  0
   40.8600   22.6200   39.1600 C   0  0  0  0  0  0  0  0  0  0  0  0
   40.6900   22.1200   38.0500 O   0  0  0  0  0  0  0  0  0  0  0  0
   24.2870   25.9270   35.3530 H   0  0  0  0  0  0  0  0  0  0  0  0
   27.4030   23.6470   34.1410 H   0  0  0  0  0  0  0  0  0  0  0  0
   35.6610   18.9860   34.4910 H   0  0  0  0  0  0  0  0  0  0  0  0
   30.2600   20.6030   37.9750 H   0  0  0  0  0  0  0  0  0  0  0  0
   25.5550   18.6620   42.0890 H   0  0  0  0  0  0  0  0  0  0  0  0
   22.9130   20.0860   42.8820 H   0  0  0  0  0  0  0  0  0  0  0  0
   22.6530   27.3880   41.7900 H   0  0  0  0  0  0  0  0  0  0  0  0
   23.6920   30.9940   42.1820 H   0  0  0  0  0  0  0  0  0  0  0  0
   31.2020   40.2930   43.3860 H   0  0  0  0  0  0  0  0  0  0  0  0
   30.5840   37.1680   42.9630 H   0  0  0  0  0  0  0  0  0  0  0  0
   38.9770   33.8350   37.1430 H   0  0  0  0  0  0  0  0  0  0  0  0
   42.1100   33.4310   37.4400 H   0  0  0  0  0  0  0  0  0  0  0  0
   42.4830   28.6540   41.0720 H   0  0  0  0  0  0  0  0  0  0  0  0
   42.7030   25.7340   43.7630 H   0  0  0  0  0  0  0  0  0  0  0  0
   42.1850   21.0850   41.7630 H   0  0  0  0  0  0  0  0  0  0  0  0
   41.2160   23.6540   39.2840 H   0  0  0  0  0  0  0  0  0  0  0  0
  1  2  1  0  0  0  0
  1  3  1  0  0  0  0
  3  4  1  0  0  0  0
  3  5  1  0  0  0  0
  5  6  1  0  0  0  0
  5  7  1  0  0  0  0
  5  8  1  0  0  0  0
  8  9  4  0  0  0  0
  9 10  1  0  0  0  0
  9 11  4  0  0  0  0
 11 12  1  0  0  0  0
 11 13  4  0  0  0  0
 13 14  1  0  0  0  0
 14 15  1  0  0  0  0
 13 16  4  0  0  0  0
 16 17  1  0  0  0  0
  8 18  4  0  0  0  0
 16 18  4  0  0  0  0
 18 19  1  0  0  0  0
  3 20  1  0  0  0  0
 20 21  2  0  0  0  0
 22 23  1  0  0  0  0
 22 24  1  0  0  0  0
 24 25  1  0  0  0  0
 24 26  1  0  0  0  0
 26 27  1  0  0  0  0
 26 28  1  0  0  0  0
 26 29  1  0  0  0  0
 29 30  4  0  0  0  0
 30 31  1  0  0  0  0
 30 32  4  0  0  0  0
 32 33  1  0  0  0  0
 32 34  4  0  0  0  0
 34 35  1  0  0  0  0
 34 36  4  0  0  0  0
 36 37  1  0  0  0  0
 29 38  4  0  0  0  0
 36 38  4  0  0  0  0
 38 39  1  0  0  0  0
 24 40  1  0  0  0  0
 40 41  2  0  0  0  0
 40 42  4  0  0  0  0
 42 43  1  0  0  0  0
 42 44  1  0  0  0  0
 44 45  1  0  0  0  0
 44 46  1  0  0  0  0
 46 47  1  0  0  0  0
 46 48  1  0  0  0  0
 46 49  1  0  0  0  0
 49 50  4  0  0  0  0
 49 51  2  0  0  0  0
 44 52  1  0  0  0  0
 52 53  2  0  0  0  0
 54 55  1  0  0  0  0
 54 56  1  0  0  0  0
 56 57  1  0  0  0  0
 56 58  1  0  0  0  0
 58 59  1  0  0  0  0
 58 60  1  0  0  0  0
 58 61  1  0  0  0  0
 61 62  1  0  0  0  0
 61 63  1  0  0  0  0
 61 64  1  0  0  0  0
 64 65  1  0  0  0  0
 64 66  1  0  0  0  0
 64 67  1  0  0  0  0
 67 68  1  0  0  0  0
 67 69  4  0  0  0  0
 69 70  4  0  0  0  0
 70 71  1  0  0  0  0
 70 72  1  0  0  0  0
 69 73  4  0  0  0  0
 73 74  1  0  0  0  0
 73 75  1  0  0  0  0
 56 76  1  0  0  0  0
 76 77  2  0  0  0  0
 78 79  1  0  0  0  0
 78 80  1  0  0  0  0
 80 81  1  0  0  0  0
 80 82  1  0  0  0  0
 82 83  1  0  0  0  0
 82 84  1  0  0  0  0
 82 85  1  0  0  0  0
 85 86  4  0  0  0  0
 86 87  1  0  0  0  0
 86 88  4  0  0  0  0
 88 89  1  0  0  0  0
 88 90  4  0  0  0  0
 90 91  1  0  0  0  0
 90 92  4  0  0  0  0
 92 93  1  0  0  0  0
 85 94  4  0  0  0  0
 92 94  4  0  0  0  0
 94 95  1  0  0  0  0
 80 96  1  0  0  0  0
 96 97  2  0  0  0  0
 98 99  1  0  0  0  0
 98100  1  0  0  0  0
100101  1  0  0  0  0
100102  1  0  0  0  0
102103  1  0  0  0  0
102104  1  0  0  0  0
102105  1  0  0  0  0
105106  1  0  0  0  0
105107  1  0  0  0  0
105108  1  0  0  0  0
108109  4  0  0  0  0
108110  4  0  0  0  0
100111  1  0  0  0  0
111112  2  0  0  0  0
113114  1  0  0  0  0
113115  1  0  0  0  0
115116  1  0  0  0  0
115117  1  0  0  0  0
117118  1  0  0  0  0
117119  1  0  0  0  0
117120  1  0  0  0  0
120121  4  0  0  0  0
121122  1  0  0  0  0
121123  4  0  0  0  0
123124  1  0  0  0  0
123125  4  0  0  0  0
125126  1  0  0  0  0
126127  1  0  0  0  0
125128  4  0  0  0  0
128129  1  0  0  0  0
120130  4  0  0  0  0
128130  4  0  0  0  0
130131  1  0  0  0  0
115132  1  0  0  0  0
132133  2  0  0  0  0
134135  1  0  0  0  0
134136  1  0  0  0  0
136137  1  0  0  0  0
136138  1  0  0  0  0
138139  1  0  0  0  0
138140  1  0  0  0  0
138141  1  0  0  0  0
141142  4  0  0  0  0
142143  2  0  0  0  0
143144  1  0  0  0  0
143145  4  0  0  0  0
145146  1  0  0  0  0
141147  2  0  0  0  0
145147  1  0  0  0  0
147148  1  0  0  0  0
136149  1  0  0  0  0
149150  2  0  0  0  0
151152  1  0  0  0  0
151153  1  0  0  0  0
153154  1  0  0  0  0
153155  1  0  0  0  0
155156  1  0  0  0  0
155157  1  0  0  0  0
157158  1  0  0  0  0
157159  1  0  0  0  0
157160  1  0  0  0  0
155161  1  0  0  0  0
161162  1  0  0  0  0
161163  1  0  0  0  0
161164  1  0  0  0  0
164165  1  0  0  0  0
164166  1  0  0  0  0
164167  1  0  0  0  0
153168  1  0  0  0  0
168169  2  0  0  0  0
  1170  1  0  0  0  0
 20171  1  0  0  0  0
 22172  1  0  0  0  0
 52173  1  0  0  0  0
 54174  1  0  0  0  0
 76175  1  0  0  0  0
 78176  1  0  0  0  0
 96177  1  0  0  0  0
 98178  1  0  0  0  0
111179  1  0  0  0  0
113180  1  0  0  0  0
132181  1  0  0  0  0
134182  1  0  0  0  0
149183  1  0  0  0  0
151184  1  0  0  0  0
168185  1  0  0  0  0
M  CHG  1   1  -1
M  END
