 xtb: 6.7.1 (edcfbbe)
          01052609083D

239236  0     0  0            999 V2000
   25.8000   29.1200   40.1500 N   0  0  0  0  0  0  0  0  0  0  0  0
   26.0400   28.5500   40.9500 H   0  0  0  0  0  0  0  0  0  0  0  0
   26.6000   28.8000   38.9800 C   0  0  0  0  0  0  0  0  0  0  0  0
   25.9700   29.0200   38.1200 H   0  0  0  0  0  0  0  0  0  0  0  0
   27.8500   29.6900   38.9600 C   0  0  0  0  0  0  0  0  0  0  0  0
   27.4800   30.6800   39.1900 H   0  0  0  0  0  0  0  0  0  0  0  0
   28.2700   29.7300   37.9600 H   0  0  0  0  0  0  0  0  0  0  0  0
   29.0000   29.3300   39.8700 C   0  0  0  0  0  0  0  0  0  0  0  0
   29.8500   28.2700   39.5200 C   0  0  0  0  0  0  0  0  0  0  0  0
   29.8100   27.7900   38.5600 H   0  0  0  0  0  0  0  0  0  0  0  0
   30.9100   27.9400   40.3800 C   0  0  0  0  0  0  0  0  0  0  0  0
   31.6400   27.1900   40.1200 H   0  0  0  0  0  0  0  0  0  0  0  0
   30.9900   28.5200   41.6600 C   0  0  0  0  0  0  0  0  0  0  0  0
   31.9400   28.1300   42.5600 O   0  0  0  0  0  0  0  0  0  0  0  0
   32.6100   27.5800   42.1500 H   0  0  0  0  0  0  0  0  0  0  0  0
   30.1700   29.6200   41.9800 C   0  0  0  0  0  0  0  0  0  0  0  0
   30.3700   30.1500   42.9000 H   0  0  0  0  0  0  0  0  0  0  0  0
   29.1700   30.0100   41.0800 C   0  0  0  0  0  0  0  0  0  0  0  0
   28.5600   30.8700   41.3000 H   0  0  0  0  0  0  0  0  0  0  0  0
   27.0000   27.3400   38.8600 C   0  0  0  0  0  0  0  0  0  0  0  0
   27.0200   26.5800   39.8300 O   0  0  0  0  0  0  0  0  0  0  0  0
   33.4500   20.5700   36.9800 N   0  0  0  0  0  0  0  0  0  0  0  0
   33.3200   21.4400   36.4700 H   0  0  0  0  0  0  0  0  0  0  0  0
   34.4800   20.4700   37.9900 C   0  0  0  0  0  0  0  0  0  0  0  0
   34.5700   19.4000   38.1900 H   0  0  0  0  0  0  0  0  0  0  0  0
   35.7500   21.0500   37.3900 C   0  0  0  0  0  0  0  0  0  0  0  0
   36.0200   20.5300   36.4800 H   0  0  0  0  0  0  0  0  0  0  0  0
   36.4900   20.9500   38.1800 H   0  0  0  0  0  0  0  0  0  0  0  0
   35.8300   22.5500   37.1900 C   0  0  0  0  0  0  0  0  0  0  0  0
   35.6000   23.0700   35.9100 C   0  0  0  0  0  0  0  0  0  0  0  0
   35.3600   22.3400   35.1500 H   0  0  0  0  0  0  0  0  0  0  0  0
   35.7600   24.4400   35.6700 C   0  0  0  0  0  0  0  0  0  0  0  0
   35.5200   24.8200   34.6900 H   0  0  0  0  0  0  0  0  0  0  0  0
   36.0000   25.3100   36.7400 C   0  0  0  0  0  0  0  0  0  0  0  0
   36.0500   26.3600   36.5400 H   0  0  0  0  0  0  0  0  0  0  0  0
   36.1600   24.8100   38.0400 C   0  0  0  0  0  0  0  0  0  0  0  0
   36.5200   25.4200   38.8600 H   0  0  0  0  0  0  0  0  0  0  0  0
   36.0800   23.4200   38.2500 C   0  0  0  0  0  0  0  0  0  0  0  0
   36.3200   23.0100   39.2200 H   0  0  0  0  0  0  0  0  0  0  0  0
   34.0000   21.2000   39.2400 C   0  0  0  0  0  0  0  0  0  0  0  0
   34.4200   20.9300   40.3600 O   0  0  0  0  0  0  0  0  0  0  0  0
   33.1500   22.2300   39.1900 N   0  0  0  0  0  0  0  0  0  0  0  0
   32.6700   22.4500   38.3300 H   0  0  0  0  0  0  0  0  0  0  0  0
   32.7500   23.0900   40.2800 C   0  0  0  0  0  0  0  0  0  0  0  0
   32.5000   22.5200   41.1700 H   0  0  0  0  0  0  0  0  0  0  0  0
   33.8700   24.0900   40.5600 C   0  0  0  0  0  0  0  0  0  0  0  0
   34.1300   24.6500   39.6600 H   0  0  0  0  0  0  0  0  0  0  0  0
   34.8200   23.6000   40.7500 H   0  0  0  0  0  0  0  0  0  0  0  0
   33.4200   24.9800   41.7200 C   0  0  0  0  0  0  0  0  0  0  0  0
   33.5400   26.2100   41.5700 O   0  0  0  0  0  0  0  0  0  0  0  0
   32.9400   24.3800   42.7000 O   0  0  0  0  0  0  0  0  0  0  0  0
   31.4200   23.7700   39.9900 C   0  0  0  0  0  0  0  0  0  0  0  0
   30.9100   23.8400   38.8700 O   0  0  0  0  0  0  0  0  0  0  0  0
   26.6400   22.4800   45.8300 N   0  0  0  0  0  0  0  0  0  0  0  0
   26.8800   23.2500   45.2200 H   0  0  0  0  0  0  0  0  0  0  0  0
   26.6600   22.8500   47.2300 C   0  0  0  0  0  0  0  0  0  0  0  0
   26.6400   21.9000   47.7700 H   0  0  0  0  0  0  0  0  0  0  0  0
   27.8300   23.7700   47.5500 C   0  0  0  0  0  0  0  0  0  0  0  0
   27.8000   23.9900   48.6200 H   0  0  0  0  0  0  0  0  0  0  0  0
   27.6400   24.7200   47.0400 H   0  0  0  0  0  0  0  0  0  0  0  0
   29.2300   23.1900   47.3500 C   0  0  0  0  0  0  0  0  0  0  0  0
   29.3400   22.7200   46.3800 H   0  0  0  0  0  0  0  0  0  0  0  0
   29.3400   22.3700   48.0600 H   0  0  0  0  0  0  0  0  0  0  0  0
   30.3800   24.1400   47.6700 C   0  0  0  0  0  0  0  0  0  0  0  0
   31.3000   23.5600   47.6600 H   0  0  0  0  0  0  0  0  0  0  0  0
   30.1800   24.4900   48.6800 H   0  0  0  0  0  0  0  0  0  0  0  0
   30.4300   25.2300   46.6900 N   0  0  0  0  0  0  0  0  0  0  0  0
   29.9800   26.1000   46.9500 H   0  0  0  0  0  0  0  0  0  0  0  0
   31.2200   25.3200   45.6200 C   0  0  0  0  0  0  0  0  0  0  0  0
   31.8100   24.2500   45.0700 N   0  0  0  0  0  0  0  0  0  0  0  0
   31.4900   23.3500   45.3800 H   0  0  0  0  0  0  0  0  0  0  0  0
   32.3200   24.3000   44.2000 H   0  0  0  0  0  0  0  0  0  0  0  0
   31.3800   26.4900   44.9900 N   0  0  0  0  0  0  0  0  0  0  0  0
   30.8700   27.3200   45.2400 H   0  0  0  0  0  0  0  0  0  0  0  0
   32.1100   26.5500   44.2900 H   0  0  0  0  0  0  0  0  0  0  0  0
   25.4000   23.4800   47.8100 C   0  0  0  0  0  0  0  0  0  0  0  0
   25.3600   23.7800   49.0100 O   0  0  0  0  0  0  0  0  0  0  0  0
   27.0300   32.1500   45.8400 N   0  0  0  0  0  0  0  0  0  0  0  0
   26.4000   32.4000   45.0900 H   0  0  0  0  0  0  0  0  0  0  0  0
   28.3900   32.5800   45.5500 C   0  0  0  0  0  0  0  0  0  0  0  0
   28.9900   32.3600   46.4300 H   0  0  0  0  0  0  0  0  0  0  0  0
   28.8800   31.8600   44.3000 C   0  0  0  0  0  0  0  0  0  0  0  0
   28.2100   32.0700   43.4600 H   0  0  0  0  0  0  0  0  0  0  0  0
   28.6800   30.8200   44.5600 H   0  0  0  0  0  0  0  0  0  0  0  0
   30.3200   32.1800   43.9700 C   0  0  0  0  0  0  0  0  0  0  0  0
   30.6000   33.1800   43.0300 C   0  0  0  0  0  0  0  0  0  0  0  0
   29.8100   33.7600   42.5700 H   0  0  0  0  0  0  0  0  0  0  0  0
   31.9200   33.5500   42.7700 C   0  0  0  0  0  0  0  0  0  0  0  0
   32.1000   34.2900   42.0000 H   0  0  0  0  0  0  0  0  0  0  0  0
   33.0000   32.9100   43.3900 C   0  0  0  0  0  0  0  0  0  0  0  0
   34.0500   33.0200   43.1500 H   0  0  0  0  0  0  0  0  0  0  0  0
   32.7300   31.9300   44.3500 C   0  0  0  0  0  0  0  0  0  0  0  0
   33.4900   31.3400   44.8400 H   0  0  0  0  0  0  0  0  0  0  0  0
   31.4000   31.6000   44.6400 C   0  0  0  0  0  0  0  0  0  0  0  0
   31.2400   30.8900   45.4400 H   0  0  0  0  0  0  0  0  0  0  0  0
   28.4300   34.1000   45.3900 C   0  0  0  0  0  0  0  0  0  0  0  0
   27.8000   34.6400   44.4900 O   0  0  0  0  0  0  0  0  0  0  0  0
   38.9200   39.3300   44.5400 N   0  0  0  0  0  0  0  0  0  0  0  0
   38.0000   39.7100   44.3700 H   0  0  0  0  0  0  0  0  0  0  0  0
   38.8300   38.0600   45.2300 C   0  0  0  0  0  0  0  0  0  0  0  0
   39.8000   37.7400   45.6200 H   0  0  0  0  0  0  0  0  0  0  0  0
   37.9000   38.3300   46.4000 C   0  0  0  0  0  0  0  0  0  0  0  0
   38.3000   39.1500   47.0100 H   0  0  0  0  0  0  0  0  0  0  0  0
   37.9100   37.4900   47.0900 H   0  0  0  0  0  0  0  0  0  0  0  0
   36.4400   38.6800   46.1600 C   0  0  0  0  0  0  0  0  0  0  0  0
   35.9700   37.8700   45.6100 H   0  0  0  0  0  0  0  0  0  0  0  0
   36.4100   39.5400   45.4900 H   0  0  0  0  0  0  0  0  0  0  0  0
   35.7500   38.9000   47.5000 C   0  0  0  0  0  0  0  0  0  0  0  0
   35.9700   38.2300   48.5300 O   0  0  0  0  0  0  0  0  0  0  0  0
   34.8800   39.7900   47.5800 O   0  0  0  0  0  0  0  0  0  0  0  0
   38.3300   36.9100   44.3600 C   0  0  0  0  0  0  0  0  0  0  0  0
   38.1000   35.7500   44.7100 O   0  0  0  0  0  0  0  0  0  0  0  0
   38.2600   37.1900   43.0600 N   0  0  0  0  0  0  0  0  0  0  0  0
   38.5600   38.1000   42.7500 H   0  0  0  0  0  0  0  0  0  0  0  0
   38.0000   36.3400   41.9100 C   0  0  0  0  0  0  0  0  0  0  0  0
   38.1100   35.3000   42.2100 H   0  0  0  0  0  0  0  0  0  0  0  0
   36.5900   36.5500   41.3500 C   0  0  0  0  0  0  0  0  0  0  0  0
   36.5600   36.0500   40.3800 H   0  0  0  0  0  0  0  0  0  0  0  0
   35.4900   35.9300   42.2000 C   0  0  0  0  0  0  0  0  0  0  0  0
   35.7700   34.9400   42.5500 H   0  0  0  0  0  0  0  0  0  0  0  0
   35.5600   36.4800   43.1500 H   0  0  0  0  0  0  0  0  0  0  0  0
   34.4900   36.1900   41.8400 H   0  0  0  0  0  0  0  0  0  0  0  0
   36.1800   38.0100   41.2700 C   0  0  0  0  0  0  0  0  0  0  0  0
   35.3200   38.0700   40.5900 H   0  0  0  0  0  0  0  0  0  0  0  0
   35.9400   38.4200   42.2500 H   0  0  0  0  0  0  0  0  0  0  0  0
   37.0200   38.6000   40.8900 H   0  0  0  0  0  0  0  0  0  0  0  0
   39.0400   36.6700   40.8600 C   0  0  0  0  0  0  0  0  0  0  0  0
   39.5600   37.7800   40.7700 O   0  0  0  0  0  0  0  0  0  0  0  0
   39.2200   35.7000   39.9500 N   0  0  0  0  0  0  0  0  0  0  0  0
   38.7600   34.8200   40.0900 H   0  0  0  0  0  0  0  0  0  0  0  0
   39.9700   35.8300   38.7100 C   0  0  0  0  0  0  0  0  0  0  0  0
   40.9600   36.2200   38.9400 H   0  0  0  0  0  0  0  0  0  0  0  0
   39.9400   34.5200   37.9300 C   0  0  0  0  0  0  0  0  0  0  0  0
   40.3400   34.8000   36.9500 H   0  0  0  0  0  0  0  0  0  0  0  0
   40.7900   33.3800   38.4700 C   0  0  0  0  0  0  0  0  0  0  0  0
   41.0800   32.6700   37.7000 H   0  0  0  0  0  0  0  0  0  0  0  0
   41.7300   33.8900   38.7300 H   0  0  0  0  0  0  0  0  0  0  0  0
   40.4000   33.0300   39.4300 H   0  0  0  0  0  0  0  0  0  0  0  0
   38.5300   34.0000   37.7000 C   0  0  0  0  0  0  0  0  0  0  0  0
   37.8100   34.7600   37.3700 H   0  0  0  0  0  0  0  0  0  0  0  0
   38.2800   33.6100   38.6900 H   0  0  0  0  0  0  0  0  0  0  0  0
   38.4400   32.9400   36.6000 C   0  0  0  0  0  0  0  0  0  0  0  0
   39.2800   32.2600   36.5300 H   0  0  0  0  0  0  0  0  0  0  0  0
   37.5400   32.3300   36.6500 H   0  0  0  0  0  0  0  0  0  0  0  0
   38.5500   33.4400   35.6400 H   0  0  0  0  0  0  0  0  0  0  0  0
   39.3900   36.9300   37.8400 C   0  0  0  0  0  0  0  0  0  0  0  0
   38.1800   37.1500   37.8700 O   0  0  0  0  0  0  0  0  0  0  0  0
   42.7300   30.7700   34.6500 N   0  0  0  0  0  0  0  0  0  0  0  0
   41.9700   30.1500   34.4000 H   0  0  0  0  0  0  0  0  0  0  0  0
   43.8200   30.0700   35.3100 C   0  0  0  0  0  0  0  0  0  0  0  0
   44.2400   30.8400   35.9600 H   0  0  0  0  0  0  0  0  0  0  0  0
   43.2200   29.0300   36.2500 C   0  0  0  0  0  0  0  0  0  0  0  0
   44.0600   28.4400   36.6000 H   0  0  0  0  0  0  0  0  0  0  0  0
   42.5300   28.4300   35.6500 H   0  0  0  0  0  0  0  0  0  0  0  0
   42.5100   29.4600   37.5100 C   0  0  0  0  0  0  0  0  0  0  0  0
   41.2800   28.8700   37.8400 C   0  0  0  0  0  0  0  0  0  0  0  0
   40.7600   28.2700   37.1200 H   0  0  0  0  0  0  0  0  0  0  0  0
   40.6600   29.2800   39.0300 C   0  0  0  0  0  0  0  0  0  0  0  0
   39.6100   29.1000   39.1800 H   0  0  0  0  0  0  0  0  0  0  0  0
   41.2900   30.1300   39.9600 C   0  0  0  0  0  0  0  0  0  0  0  0
   40.7100   30.3800   41.1700 O   0  0  0  0  0  0  0  0  0  0  0  0
   41.2900   30.9700   41.6600 H   0  0  0  0  0  0  0  0  0  0  0  0
   42.5200   30.7100   39.5900 C   0  0  0  0  0  0  0  0  0  0  0  0
   42.9500   31.4100   40.2900 H   0  0  0  0  0  0  0  0  0  0  0  0
   43.1100   30.4100   38.3600 C   0  0  0  0  0  0  0  0  0  0  0  0
   44.0200   30.9500   38.1600 H   0  0  0  0  0  0  0  0  0  0  0  0
   44.9800   29.5900   34.4400 C   0  0  0  0  0  0  0  0  0  0  0  0
   45.9300   29.0000   34.9600 O   0  0  0  0  0  0  0  0  0  0  0  0
   44.8300   23.6400   38.0300 N   0  0  0  0  0  0  0  0  0  0  0  0
   44.7100   22.9600   37.2900 H   0  0  0  0  0  0  0  0  0  0  0  0
   44.6800   23.1200   39.3700 C   0  0  0  0  0  0  0  0  0  0  0  0
   45.3700   23.7300   39.9600 H   0  0  0  0  0  0  0  0  0  0  0  0
   43.2900   23.3700   39.9600 C   0  0  0  0  0  0  0  0  0  0  0  0
   42.6100   22.6100   39.5700 H   0  0  0  0  0  0  0  0  0  0  0  0
   43.0100   24.3600   39.5900 H   0  0  0  0  0  0  0  0  0  0  0  0
   43.3400   23.4100   41.4600 C   0  0  0  0  0  0  0  0  0  0  0  0
   42.9600   22.3800   42.3200 N   0  0  0  0  0  0  0  0  0  0  0  0
   43.1300   22.8600   43.5500 C   0  0  0  0  0  0  0  0  0  0  0  0
   42.9300   22.3800   44.4900 H   0  0  0  0  0  0  0  0  0  0  0  0
   43.5700   24.1300   43.5700 N   0  0  0  0  0  0  0  0  0  0  0  0
   43.9500   24.5500   44.4000 H   0  0  0  0  0  0  0  0  0  0  0  0
   43.7400   24.4700   42.2400 C   0  0  0  0  0  0  0  0  0  0  0  0
   44.1200   25.4100   41.8700 H   0  0  0  0  0  0  0  0  0  0  0  0
   45.0000   21.6400   39.4900 C   0  0  0  0  0  0  0  0  0  0  0  0
   44.5200   20.9600   38.5800 O   0  0  0  0  0  0  0  0  0  0  0  0
   43.0200   18.4400   38.2200 N   0  0  0  0  0  0  0  0  0  0  0  0
   43.7200   19.1800   38.2300 H   0  0  0  0  0  0  0  0  0  0  0  0
   41.6000   18.6900   38.1400 C   0  0  0  0  0  0  0  0  0  0  0  0
   41.1200   17.8000   37.7300 H   0  0  0  0  0  0  0  0  0  0  0  0
   41.0400   18.8900   39.5500 C   0  0  0  0  0  0  0  0  0  0  0  0
   41.3900   18.1100   40.2200 H   0  0  0  0  0  0  0  0  0  0  0  0
   41.5400   20.2100   40.1200 C   0  0  0  0  0  0  0  0  0  0  0  0
   41.2600   20.3200   41.1700 H   0  0  0  0  0  0  0  0  0  0  0  0
   42.6200   20.2700   40.0300 H   0  0  0  0  0  0  0  0  0  0  0  0
   41.0200   21.0700   39.6800 H   0  0  0  0  0  0  0  0  0  0  0  0
   39.5400   19.0100   39.8000 C   0  0  0  0  0  0  0  0  0  0  0  0
   39.0900   19.8000   39.1900 H   0  0  0  0  0  0  0  0  0  0  0  0
   39.4900   19.3000   40.8500 H   0  0  0  0  0  0  0  0  0  0  0  0
   38.8500   17.6800   39.5000 C   0  0  0  0  0  0  0  0  0  0  0  0
   39.3100   16.9100   40.1100 H   0  0  0  0  0  0  0  0  0  0  0  0
   37.7900   17.7100   39.7400 H   0  0  0  0  0  0  0  0  0  0  0  0
   39.1200   17.4900   38.4700 H   0  0  0  0  0  0  0  0  0  0  0  0
   41.2000   19.7400   37.1200 C   0  0  0  0  0  0  0  0  0  0  0  0
   40.2500   19.5500   36.3700 O   0  0  0  0  0  0  0  0  0  0  0  0
   42.0700   20.7400   36.9300 N   0  0  0  0  0  0  0  0  0  0  0  0
   42.8100   20.7300   37.6300 H   0  0  0  0  0  0  0  0  0  0  0  0
   42.0100   21.7600   35.9100 C   0  0  0  0  0  0  0  0  0  0  0  0
   41.1800   21.6300   35.2200 H   0  0  0  0  0  0  0  0  0  0  0  0
   41.6200   23.1300   36.4500 C   0  0  0  0  0  0  0  0  0  0  0  0
   42.3200   23.3200   37.2600 H   0  0  0  0  0  0  0  0  0  0  0  0
   41.7000   24.1800   35.3500 C   0  0  0  0  0  0  0  0  0  0  0  0
   42.7500   24.3200   35.0900 H   0  0  0  0  0  0  0  0  0  0  0  0
   41.1500   23.9400   34.4400 H   0  0  0  0  0  0  0  0  0  0  0  0
   41.3400   25.1700   35.6500 H   0  0  0  0  0  0  0  0  0  0  0  0
   40.2400   23.0300   37.1100 C   0  0  0  0  0  0  0  0  0  0  0  0
   40.0500   22.1900   37.7700 H   0  0  0  0  0  0  0  0  0  0  0  0
   39.5700   22.7600   36.3000 H   0  0  0  0  0  0  0  0  0  0  0  0
   39.7900   24.2600   37.9100 C   0  0  0  0  0  0  0  0  0  0  0  0
   40.6800   24.7100   38.3500 H   0  0  0  0  0  0  0  0  0  0  0  0
   39.4000   25.0700   37.2900 H   0  0  0  0  0  0  0  0  0  0  0  0
   39.1400   24.0700   38.7600 H   0  0  0  0  0  0  0  0  0  0  0  0
   43.2400   21.8100   35.0200 C   0  0  0  0  0  0  0  0  0  0  0  0
   44.3500   21.9900   35.5200 O   0  0  0  0  0  0  0  0  0  0  0  0
   25.1470   29.8870   40.2180 H   0  0  0  0  0  0  0  0  0  0  0  0
   27.2230   26.9850   37.8430 H   0  0  0  0  0  0  0  0  0  0  0  0
   32.9360   19.7840   36.6090 H   0  0  0  0  0  0  0  0  0  0  0  0
   30.8260   24.0500   40.8720 H   0  0  0  0  0  0  0  0  0  0  0  0
   26.1190   21.7170   45.4220 H   0  0  0  0  0  0  0  0  0  0  0  0
   24.5610   23.7510   47.1520 H   0  0  0  0  0  0  0  0  0  0  0  0
   26.7340   31.6040   46.6360 H   0  0  0  0  0  0  0  0  0  0  0  0
   29.0390   34.6920   46.0890 H   0  0  0  0  0  0  0  0  0  0  0  0
   39.6940   39.6560   43.9790 H   0  0  0  0  0  0  0  0  0  0  0  0
   40.0160   37.4490   37.0990 H   0  0  0  0  0  0  0  0  0  0  0  0
   42.6470   31.7670   34.5140 H   0  0  0  0  0  0  0  0  0  0  0  0
   44.9060   29.7880   33.3600 H   0  0  0  0  0  0  0  0  0  0  0  0
   45.2080   24.5320   37.7430 H   0  0  0  0  0  0  0  0  0  0  0  0
   45.6770   21.2520   40.2660 H   0  0  0  0  0  0  0  0  0  0  0  0
   43.3970   17.5140   38.3630 H   0  0  0  0  0  0  0  0  0  0  0  0
   43.1740   21.6860   33.9290 H   0  0  0  0  0  0  0  0  0  0  0  0
  1  2  1  0  0  0  0
  1  3  1  0  0  0  0
  3  4  1  0  0  0  0
  3  5  1  0  0  0  0
  5  6  1  0  0  0  0
  5  7  1  0  0  0  0
  5  8  1  0  0  0  0
  8  9  4  0  0  0  0
  9 10  1  0  0  0  0
  9 11  4  0  0  0  0
 11 12  1  0  0  0  0
 11 13  4  0  0  0  0
 13 14  1  0  0  0  0
 14 15  1  0  0  0  0
 13 16  4  0  0  0  0
 16 17  1  0  0  0  0
  8 18  4  0  0  0  0
 16 18  4  0  0  0  0
 18 19  1  0  0  0  0
  3 20  1  0  0  0  0
 20 21  2  0  0  0  0
 22 23  1  0  0  0  0
 22 24  1  0  0  0  0
 24 25  1  0  0  0  0
 24 26  1  0  0  0  0
 26 27  1  0  0  0  0
 26 28  1  0  0  0  0
 26 29  1  0  0  0  0
 29 30  4  0  0  0  0
 30 31  1  0  0  0  0
 30 32  4  0  0  0  0
 32 33  1  0  0  0  0
 32 34  4  0  0  0  0
 34 35  1  0  0  0  0
 34 36  4  0  0  0  0
 36 37  1  0  0  0  0
 29 38  4  0  0  0  0
 36 38  4  0  0  0  0
 38 39  1  0  0  0  0
 24 40  1  0  0  0  0
 40 41  2  0  0  0  0
 40 42  4  0  0  0  0
 42 43  1  0  0  0  0
 42 44  1  0  0  0  0
 44 45  1  0  0  0  0
 44 46  1  0  0  0  0
 46 47  1  0  0  0  0
 46 48  1  0  0  0  0
 46 49  1  0  0  0  0
 49 50  4  0  0  0  0
 49 51  4  0  0  0  0
 44 52  1  0  0  0  0
 52 53  2  0  0  0  0
 54 55  1  0  0  0  0
 54 56  1  0  0  0  0
 56 57  1  0  0  0  0
 56 58  1  0  0  0  0
 58 59  1  0  0  0  0
 58 60  1  0  0  0  0
 58 61  1  0  0  0  0
 61 62  1  0  0  0  0
 61 63  1  0  0  0  0
 61 64  1  0  0  0  0
 64 65  1  0  0  0  0
 64 66  1  0  0  0  0
 64 67  1  0  0  0  0
 67 68  1  0  0  0  0
 67 69  4  0  0  0  0
 69 70  4  0  0  0  0
 70 71  1  0  0  0  0
 70 72  1  0  0  0  0
 69 73  4  0  0  0  0
 73 74  1  0  0  0  0
 73 75  1  0  0  0  0
 56 76  1  0  0  0  0
 76 77  2  0  0  0  0
 78 79  1  0  0  0  0
 78 80  1  0  0  0  0
 80 81  1  0  0  0  0
 80 82  1  0  0  0  0
 82 83  1  0  0  0  0
 82 84  1  0  0  0  0
 82 85  1  0  0  0  0
 85 86  4  0  0  0  0
 86 87  1  0  0  0  0
 86 88  4  0  0  0  0
 88 89  1  0  0  0  0
 88 90  4  0  0  0  0
 90 91  1  0  0  0  0
 90 92  4  0  0  0  0
 92 93  1  0  0  0  0
 85 94  4  0  0  0  0
 92 94  4  0  0  0  0
 94 95  1  0  0  0  0
 80 96  1  0  0  0  0
 96 97  2  0  0  0  0
 98 99  1  0  0  0  0
 98100  1  0  0  0  0
100101  1  0  0  0  0
100102  1  0  0  0  0
102103  1  0  0  0  0
102104  1  0  0  0  0
102105  1  0  0  0  0
105106  1  0  0  0  0
105107  1  0  0  0  0
105108  1  0  0  0  0
108109  4  0  0  0  0
108110  4  0  0  0  0
100111  1  0  0  0  0
111112  2  0  0  0  0
111113  4  0  0  0  0
113114  1  0  0  0  0
113115  1  0  0  0  0
115116  1  0  0  0  0
115117  1  0  0  0  0
117118  1  0  0  0  0
117119  1  0  0  0  0
119120  1  0  0  0  0
119121  1  0  0  0  0
119122  1  0  0  0  0
117123  1  0  0  0  0
123124  1  0  0  0  0
123125  1  0  0  0  0
123126  1  0  0  0  0
115127  1  0  0  0  0
127128  2  0  0  0  0
127129  4  0  0  0  0
129130  1  0  0  0  0
129131  1  0  0  0  0
131132  1  0  0  0  0
131133  1  0  0  0  0
133134  1  0  0  0  0
133135  1  0  0  0  0
135136  1  0  0  0  0
135137  1  0  0  0  0
135138  1  0  0  0  0
133139  1  0  0  0  0
139140  1  0  0  0  0
139141  1  0  0  0  0
139142  1  0  0  0  0
142143  1  0  0  0  0
142144  1  0  0  0  0
142145  1  0  0  0  0
131146  1  0  0  0  0
146147  2  0  0  0  0
148149  1  0  0  0  0
148150  1  0  0  0  0
150151  1  0  0  0  0
150152  1  0  0  0  0
152153  1  0  0  0  0
152154  1  0  0  0  0
152155  1  0  0  0  0
155156  4  0  0  0  0
156157  1  0  0  0  0
156158  4  0  0  0  0
158159  1  0  0  0  0
158160  4  0  0  0  0
160161  1  0  0  0  0
161162  1  0  0  0  0
160163  4  0  0  0  0
163164  1  0  0  0  0
155165  4  0  0  0  0
163165  4  0  0  0  0
165166  1  0  0  0  0
150167  1  0  0  0  0
167168  2  0  0  0  0
169170  1  0  0  0  0
169171  1  0  0  0  0
171172  1  0  0  0  0
171173  1  0  0  0  0
173174  1  0  0  0  0
173175  1  0  0  0  0
173176  1  0  0  0  0
176177  4  0  0  0  0
177178  2  0  0  0  0
178179  1  0  0  0  0
178180  4  0  0  0  0
180181  1  0  0  0  0
176182  2  0  0  0  0
180182  1  0  0  0  0
182183  1  0  0  0  0
171184  1  0  0  0  0
184185  2  0  0  0  0
186187  1  0  0  0  0
186188  1  0  0  0  0
188189  1  0  0  0  0
188190  1  0  0  0  0
190191  1  0  0  0  0
190192  1  0  0  0  0
192193  1  0  0  0  0
192194  1  0  0  0  0
192195  1  0  0  0  0
190196  1  0  0  0  0
196197  1  0  0  0  0
196198  1  0  0  0  0
196199  1  0  0  0  0
199200  1  0  0  0  0
199201  1  0  0  0  0
199202  1  0  0  0  0
188203  1  0  0  0  0
203204  2  0  0  0  0
203205  4  0  0  0  0
205206  1  0  0  0  0
205207  1  0  0  0  0
207208  1  0  0  0  0
207209  1  0  0  0  0
209210  1  0  0  0  0
209211  1  0  0  0  0
211212  1  0  0  0  0
211213  1  0  0  0  0
211214  1  0  0  0  0
209215  1  0  0  0  0
215216  1  0  0  0  0
215217  1  0  0  0  0
215218  1  0  0  0  0
218219  1  0  0  0  0
218220  1  0  0  0  0
218221  1  0  0  0  0
207222  1  0  0  0  0
222223  2  0  0  0  0
  1224  1  0  0  0  0
 20225  1  0  0  0  0
 22226  1  0  0  0  0
 52227  1  0  0  0  0
 54228  1  0  0  0  0
 76229  1  0  0  0  0
 78230  1  0  0  0  0
 96231  1  0  0  0  0
 98232  1  0  0  0  0
146233  1  0  0  0  0
148234  1  0  0  0  0
167235  1  0  0  0  0
169236  1  0  0  0  0
184237  1  0  0  0  0
186238  1  0  0  0  0
222239  1  0  0  0  0
M  CHG  1   1  -1
M  END
