 xtb: 6.7.1 (edcfbbe)
          01052609073D

 59 61  0     0  0            999 V2000
   13.7200   24.9600   60.1900 C   0  0  0  0  0  0  0  0  0  0  0  0
   14.4000   25.7900   59.3200 N   0  0  0  0  0  0  0  0  0  0  0  0
   14.0500   27.0000   58.7000 C   0  0  0  0  0  0  0  0  0  0  0  0
   15.5400   29.1400   56.0400 C   0  0  0  0  0  0  0  0  0  0  0  0
   12.9300   27.8900   59.2000 C   0  0  0  0  0  0  0  0  0  0  0  0
   13.1800   28.7000   60.4600 C   0  0  0  0  0  0  0  0  0  0  0  0
   12.1200   29.3200   61.1200 C   0  0  0  0  0  0  0  0  0  0  0  0
   12.3600   30.1600   62.2100 C   0  0  0  0  0  0  0  0  0  0  0  0
   13.6700   30.4300   62.6400 C   0  0  0  0  0  0  0  0  0  0  0  0
   14.7200   29.7000   62.0600 C   0  0  0  0  0  0  0  0  0  0  0  0
   14.4700   28.9100   60.9400 C   0  0  0  0  0  0  0  0  0  0  0  0
   14.8000   28.6400   57.1500 O   0  0  0  0  0  0  0  0  0  0  0  0
   15.9900   26.7000   57.3800 O   0  0  0  0  0  0  0  0  0  0  0  0
   15.0400   27.4000   57.6700 C   0  0  0  0  0  0  0  0  0  0  0  0
   15.1600   28.3200   54.7900 C   0  0  0  0  0  0  0  0  0  0  0  0
   14.1100   22.2900   58.6100 C   0  0  0  0  0  0  0  0  0  0  0  0
   12.5900   25.2200   60.5700 O   0  0  0  0  0  0  0  0  0  0  0  0
   15.6200   22.1300   58.3600 C   0  0  0  0  0  0  0  0  0  0  0  0
   16.6300   23.5900   58.8500 S   0  0  0  0  0  0  0  0  0  0  0  0
   15.8900   23.6200   60.5400 C   0  0  0  0  0  0  0  0  0  0  0  0
   14.3600   23.6300   60.5900 C   0  0  0  0  0  0  0  0  0  0  0  0
   13.7800   22.4100   60.0300 N   0  0  0  0  0  0  0  0  0  0  0  0
   12.2200   21.9100   60.5200 S   0  0  0  0  0  0  0  0  0  0  0  0
   12.3900   20.1600   60.1800 C   0  0  0  0  0  0  0  0  0  0  0  0
   13.3500   19.4400   60.9100 C   0  0  0  0  0  0  0  0  0  0  0  0
   13.4300   18.0700   60.6500 C   0  0  0  0  0  0  0  0  0  0  0  0
   12.4300   17.4400   59.9000 C   0  0  0  0  0  0  0  0  0  0  0  0
   11.5600   18.2000   59.1100 C   0  0  0  0  0  0  0  0  0  0  0  0
   11.5900   19.5900   59.1900 C   0  0  0  0  0  0  0  0  0  0  0  0
   11.3700   22.5500   59.5200 O   0  0  0  0  0  0  0  0  0  0  0  0
   12.0000   22.1500   61.9500 O   0  0  0  0  0  0  0  0  0  0  0  0
   12.4700   15.9600   59.5700 C   0  0  0  0  0  0  0  0  0  0  0  0
   15.2700   25.4300   58.9400 H   0  0  0  0  0  0  0  0  0  0  0  0
   15.4000   30.2100   55.8400 H   0  0  0  0  0  0  0  0  0  0  0  0
   16.6100   28.9300   56.0900 H   0  0  0  0  0  0  0  0  0  0  0  0
   12.7900   28.6700   58.4500 H   0  0  0  0  0  0  0  0  0  0  0  0
   12.0200   27.2800   59.2800 H   0  0  0  0  0  0  0  0  0  0  0  0
   11.1400   29.0800   60.7000 H   0  0  0  0  0  0  0  0  0  0  0  0
   11.5100   30.5700   62.7500 H   0  0  0  0  0  0  0  0  0  0  0  0
   13.9100   31.0300   63.5200 H   0  0  0  0  0  0  0  0  0  0  0  0
   15.7300   29.8200   62.4200 H   0  0  0  0  0  0  0  0  0  0  0  0
   15.3400   28.5200   60.4200 H   0  0  0  0  0  0  0  0  0  0  0  0
   15.3300   27.2500   54.9600 H   0  0  0  0  0  0  0  0  0  0  0  0
   15.8600   28.6200   54.0000 H   0  0  0  0  0  0  0  0  0  0  0  0
   14.0900   28.5100   54.6400 H   0  0  0  0  0  0  0  0  0  0  0  0
   13.8500   23.2500   58.1400 H   0  0  0  0  0  0  0  0  0  0  0  0
   13.4600   21.5200   58.1700 H   0  0  0  0  0  0  0  0  0  0  0  0
   15.9700   21.2200   58.8700 H   0  0  0  0  0  0  0  0  0  0  0  0
   15.8000   22.0100   57.2800 H   0  0  0  0  0  0  0  0  0  0  0  0
   16.2600   22.7300   61.0700 H   0  0  0  0  0  0  0  0  0  0  0  0
   16.3300   24.4600   61.0800 H   0  0  0  0  0  0  0  0  0  0  0  0
   14.0600   23.5600   61.6500 H   0  0  0  0  0  0  0  0  0  0  0  0
   14.0500   19.9300   61.5800 H   0  0  0  0  0  0  0  0  0  0  0  0
   14.2300   17.5500   61.1600 H   0  0  0  0  0  0  0  0  0  0  0  0
   10.8900   17.6800   58.4300 H   0  0  0  0  0  0  0  0  0  0  0  0
   10.9000   20.2100   58.6200 H   0  0  0  0  0  0  0  0  0  0  0  0
   11.5600   15.5400   60.0200 H   0  0  0  0  0  0  0  0  0  0  0  0
   13.3200   15.4500   60.0300 H   0  0  0  0  0  0  0  0  0  0  0  0
   12.3300   15.8100   58.4900 H   0  0  0  0  0  0  0  0  0  0  0  0
  1  2  1  0  0  0  0
  2  3  4  0  0  0  0
  3  5  1  0  0  0  0
  5  6  1  0  0  0  0
  6  7  4  0  0  0  0
  7  8  4  0  0  0  0
  8  9  4  0  0  0  0
  9 10  4  0  0  0  0
  6 11  4  0  0  0  0
 10 11  4  0  0  0  0
  4 12  1  0  0  0  0
  3 14  1  0  0  0  0
 12 14  1  0  0  0  0
 13 14  2  0  0  0  0
  4 15  1  0  0  0  0
  1 17  2  0  0  0  0
 16 18  1  0  0  0  0
 18 19  1  0  0  0  0
 19 20  1  0  0  0  0
  1 21  1  0  0  0  0
 20 21  1  0  0  0  0
 16 22  1  0  0  0  0
 21 22  1  0  0  0  0
 22 23  1  0  0  0  0
 23 24  1  0  0  0  0
 24 25  4  0  0  0  0
 25 26  4  0  0  0  0
 26 27  4  0  0  0  0
 27 28  4  0  0  0  0
 24 29  4  0  0  0  0
 28 29  4  0  0  0  0
 23 30  2  0  0  0  0
 23 31  2  0  0  0  0
 27 32  1  0  0  0  0
  2 33  1  0  0  0  0
  4 34  1  0  0  0  0
  4 35  1  0  0  0  0
  5 36  1  0  0  0  0
  5 37  1  0  0  0  0
  7 38  1  0  0  0  0
  8 39  1  0  0  0  0
  9 40  1  0  0  0  0
 10 41  1  0  0  0  0
 11 42  1  0  0  0  0
 15 43  1  0  0  0  0
 15 44  1  0  0  0  0
 15 45  1  0  0  0  0
 16 46  1  0  0  0  0
 16 47  1  0  0  0  0
 18 48  1  0  0  0  0
 18 49  1  0  0  0  0
 20 50  1  0  0  0  0
 20 51  1  0  0  0  0
 21 52  1  0  0  0  0
 25 53  1  0  0  0  0
 26 54  1  0  0  0  0
 28 55  1  0  0  0  0
 29 56  1  0  0  0  0
 32 57  1  0  0  0  0
 32 58  1  0  0  0  0
 32 59  1  0  0  0  0
M  CHG  1   1   1
M  END
