 xtb: 6.7.1 (edcfbbe)
          01052609073D

 59 61  0     0  0            999 V2000
   35.1000   29.2300   41.0700 C   0  0  0  0  0  0  0  0  0  0  0  0
   34.1300   28.8400   41.9700 N   0  0  0  0  0  0  0  0  0  0  0  0
   34.1500   29.0100   43.3600 C   0  0  0  0  0  0  0  0  0  0  0  0
   32.2200   27.5200   46.2700 C   0  0  0  0  0  0  0  0  0  0  0  0
   35.1000   29.9200   44.1100 C   0  0  0  0  0  0  0  0  0  0  0  0
   34.6100   31.3300   44.3700 C   0  0  0  0  0  0  0  0  0  0  0  0
   33.9900   31.7100   45.5600 C   0  0  0  0  0  0  0  0  0  0  0  0
   33.4600   32.9900   45.7500 C   0  0  0  0  0  0  0  0  0  0  0  0
   33.6900   33.9800   44.7800 C   0  0  0  0  0  0  0  0  0  0  0  0
   34.3900   33.6700   43.6100 C   0  0  0  0  0  0  0  0  0  0  0  0
   34.8200   32.3500   43.4400 C   0  0  0  0  0  0  0  0  0  0  0  0
   33.1500   28.2000   45.4300 O   0  0  0  0  0  0  0  0  0  0  0  0
   32.3200   27.5500   43.4300 O   0  0  0  0  0  0  0  0  0  0  0  0
   33.1700   28.1500   44.0700 C   0  0  0  0  0  0  0  0  0  0  0  0
   30.8100   28.0700   46.0300 C   0  0  0  0  0  0  0  0  0  0  0  0
   35.0100   26.2800   40.1100 C   0  0  0  0  0  0  0  0  0  0  0  0
   36.1200   29.8400   41.3600 O   0  0  0  0  0  0  0  0  0  0  0  0
   33.6100   25.8200   39.6900 C   0  0  0  0  0  0  0  0  0  0  0  0
   32.3600   27.1600   39.8500 S   0  0  0  0  0  0  0  0  0  0  0  0
   33.3900   28.5400   39.2000 C   0  0  0  0  0  0  0  0  0  0  0  0
   34.8400   28.6700   39.6800 C   0  0  0  0  0  0  0  0  0  0  0  0
   35.5200   27.4100   39.3400 N   0  0  0  0  0  0  0  0  0  0  0  0
   37.1600   27.4100   38.8900 S   0  0  0  0  0  0  0  0  0  0  0  0
   37.1900   25.9800   37.8200 C   0  0  0  0  0  0  0  0  0  0  0  0
   36.1900   25.7900   36.8500 C   0  0  0  0  0  0  0  0  0  0  0  0
   36.2100   24.6500   36.0500 C   0  0  0  0  0  0  0  0  0  0  0  0
   37.1600   23.6400   36.2300 C   0  0  0  0  0  0  0  0  0  0  0  0
   38.1500   23.8300   37.2000 C   0  0  0  0  0  0  0  0  0  0  0  0
   38.2100   25.0200   37.9200 C   0  0  0  0  0  0  0  0  0  0  0  0
   37.9500   27.0800   40.0800 O   0  0  0  0  0  0  0  0  0  0  0  0
   37.4400   28.5800   38.0400 O   0  0  0  0  0  0  0  0  0  0  0  0
   37.0500   22.3500   35.4400 C   0  0  0  0  0  0  0  0  0  0  0  0
   33.3100   28.4100   41.5700 H   0  0  0  0  0  0  0  0  0  0  0  0
   32.2600   26.4500   46.0400 H   0  0  0  0  0  0  0  0  0  0  0  0
   32.5200   27.6500   47.3200 H   0  0  0  0  0  0  0  0  0  0  0  0
   35.2800   29.4900   45.1000 H   0  0  0  0  0  0  0  0  0  0  0  0
   36.1000   29.9600   43.6500 H   0  0  0  0  0  0  0  0  0  0  0  0
   33.8400   30.9600   46.3400 H   0  0  0  0  0  0  0  0  0  0  0  0
   33.0200   33.3100   46.6900 H   0  0  0  0  0  0  0  0  0  0  0  0
   33.3900   35.0000   44.9900 H   0  0  0  0  0  0  0  0  0  0  0  0
   34.5800   34.4000   42.8200 H   0  0  0  0  0  0  0  0  0  0  0  0
   35.4500   32.1700   42.5800 H   0  0  0  0  0  0  0  0  0  0  0  0
   30.1700   27.7600   46.8600 H   0  0  0  0  0  0  0  0  0  0  0  0
   30.3300   27.7300   45.1000 H   0  0  0  0  0  0  0  0  0  0  0  0
   30.6200   29.1500   46.0600 H   0  0  0  0  0  0  0  0  0  0  0  0
   35.0200   26.4900   41.1900 H   0  0  0  0  0  0  0  0  0  0  0  0
   35.7400   25.4600   40.2300 H   0  0  0  0  0  0  0  0  0  0  0  0
   33.6700   25.5500   38.6300 H   0  0  0  0  0  0  0  0  0  0  0  0
   33.2400   24.8900   40.1500 H   0  0  0  0  0  0  0  0  0  0  0  0
   33.3300   28.5300   38.1000 H   0  0  0  0  0  0  0  0  0  0  0  0
   32.8600   29.4600   39.5000 H   0  0  0  0  0  0  0  0  0  0  0  0
   35.1800   29.5200   39.0600 H   0  0  0  0  0  0  0  0  0  0  0  0
   35.4300   26.5500   36.7500 H   0  0  0  0  0  0  0  0  0  0  0  0
   35.4500   24.4400   35.3000 H   0  0  0  0  0  0  0  0  0  0  0  0
   38.9100   23.0600   37.3200 H   0  0  0  0  0  0  0  0  0  0  0  0
   38.8800   25.2300   38.7500 H   0  0  0  0  0  0  0  0  0  0  0  0
   38.0500   21.9800   35.1700 H   0  0  0  0  0  0  0  0  0  0  0  0
   36.6200   22.4200   34.4300 H   0  0  0  0  0  0  0  0  0  0  0  0
   36.5300   21.5400   35.9700 H   0  0  0  0  0  0  0  0  0  0  0  0
  1  2  1  0  0  0  0
  2  3  4  0  0  0  0
  3  5  1  0  0  0  0
  5  6  1  0  0  0  0
  6  7  4  0  0  0  0
  7  8  4  0  0  0  0
  8  9  4  0  0  0  0
  9 10  4  0  0  0  0
  6 11  4  0  0  0  0
 10 11  4  0  0  0  0
  4 12  1  0  0  0  0
  3 14  1  0  0  0  0
 12 14  1  0  0  0  0
 13 14  2  0  0  0  0
  4 15  1  0  0  0  0
  1 17  2  0  0  0  0
 16 18  1  0  0  0  0
 18 19  1  0  0  0  0
 19 20  1  0  0  0  0
  1 21  1  0  0  0  0
 20 21  1  0  0  0  0
 16 22  1  0  0  0  0
 21 22  1  0  0  0  0
 22 23  1  0  0  0  0
 23 24  1  0  0  0  0
 24 25  4  0  0  0  0
 25 26  4  0  0  0  0
 26 27  4  0  0  0  0
 27 28  4  0  0  0  0
 24 29  4  0  0  0  0
 28 29  4  0  0  0  0
 23 30  2  0  0  0  0
 23 31  2  0  0  0  0
 27 32  1  0  0  0  0
  2 33  1  0  0  0  0
  4 34  1  0  0  0  0
  4 35  1  0  0  0  0
  5 36  1  0  0  0  0
  5 37  1  0  0  0  0
  7 38  1  0  0  0  0
  8 39  1  0  0  0  0
  9 40  1  0  0  0  0
 10 41  1  0  0  0  0
 11 42  1  0  0  0  0
 15 43  1  0  0  0  0
 15 44  1  0  0  0  0
 15 45  1  0  0  0  0
 16 46  1  0  0  0  0
 16 47  1  0  0  0  0
 18 48  1  0  0  0  0
 18 49  1  0  0  0  0
 20 50  1  0  0  0  0
 20 51  1  0  0  0  0
 21 52  1  0  0  0  0
 25 53  1  0  0  0  0
 26 54  1  0  0  0  0
 28 55  1  0  0  0  0
 29 56  1  0  0  0  0
 32 57  1  0  0  0  0
 32 58  1  0  0  0  0
 32 59  1  0  0  0  0
M  CHG  1   1   1
M  END
