 xtb: 6.7.1 (edcfbbe)
          01052609073D

 59 61  0     0  0            999 V2000
   25.9600    4.8600   52.3000 C   0  0  0  0  0  0  0  0  0  0  0  0
   25.4500    5.5800   53.3600 N   0  0  0  0  0  0  0  0  0  0  0  0
   26.0900    6.1400   54.4700 C   0  0  0  0  0  0  0  0  0  0  0  0
   24.6100    7.7900   57.4700 C   0  0  0  0  0  0  0  0  0  0  0  0
   27.4200    6.8600   54.3600 C   0  0  0  0  0  0  0  0  0  0  0  0
   27.7400    7.3500   52.9600 C   0  0  0  0  0  0  0  0  0  0  0  0
   28.9400    6.9700   52.3600 C   0  0  0  0  0  0  0  0  0  0  0  0
   29.2700    7.4000   51.0700 C   0  0  0  0  0  0  0  0  0  0  0  0
   28.3300    8.1100   50.3300 C   0  0  0  0  0  0  0  0  0  0  0  0
   27.0900    8.3800   50.9200 C   0  0  0  0  0  0  0  0  0  0  0  0
   26.8300    8.1600   52.2700 C   0  0  0  0  0  0  0  0  0  0  0  0
   25.5500    7.3600   56.4800 O   0  0  0  0  0  0  0  0  0  0  0  0
   24.0200    5.9400   55.6800 O   0  0  0  0  0  0  0  0  0  0  0  0
   25.1100    6.4800   55.5400 C   0  0  0  0  0  0  0  0  0  0  0  0
   25.3600    8.7900   58.3600 C   0  0  0  0  0  0  0  0  0  0  0  0
   23.6800    2.6000   51.3400 C   0  0  0  0  0  0  0  0  0  0  0  0
   27.0400    4.3100   52.3900 O   0  0  0  0  0  0  0  0  0  0  0  0
   22.3600    3.3800   51.4600 C   0  0  0  0  0  0  0  0  0  0  0  0
   22.4800    5.0800   52.1200 S   0  0  0  0  0  0  0  0  0  0  0  0
   23.8600    5.6000   51.0100 C   0  0  0  0  0  0  0  0  0  0  0  0
   25.0900    4.6900   51.0500 C   0  0  0  0  0  0  0  0  0  0  0  0
   24.7200    3.3500   50.6200 N   0  0  0  0  0  0  0  0  0  0  0  0
   25.9500    2.5200   49.7800 S   0  0  0  0  0  0  0  0  0  0  0  0
   24.9700    1.7200   48.5100 C   0  0  0  0  0  0  0  0  0  0  0  0
   24.4100    2.5600   47.5500 C   0  0  0  0  0  0  0  0  0  0  0  0
   23.6000    2.0100   46.5600 C   0  0  0  0  0  0  0  0  0  0  0  0
   23.4200    0.6200   46.4700 C   0  0  0  0  0  0  0  0  0  0  0  0
   24.0000   -0.1900   47.4600 C   0  0  0  0  0  0  0  0  0  0  0  0
   24.7300    0.3400   48.5200 C   0  0  0  0  0  0  0  0  0  0  0  0
   26.4700    1.4800   50.6700 O   0  0  0  0  0  0  0  0  0  0  0  0
   26.8100    3.5200   49.1300 O   0  0  0  0  0  0  0  0  0  0  0  0
   22.6400    0.1100   45.2800 C   0  0  0  0  0  0  0  0  0  0  0  0
   24.4500    5.7200   53.2800 H   0  0  0  0  0  0  0  0  0  0  0  0
   23.7600    8.2100   56.9300 H   0  0  0  0  0  0  0  0  0  0  0  0
   24.3200    6.8900   58.0300 H   0  0  0  0  0  0  0  0  0  0  0  0
   27.5600    7.7300   55.0100 H   0  0  0  0  0  0  0  0  0  0  0  0
   28.1600    6.1400   54.7200 H   0  0  0  0  0  0  0  0  0  0  0  0
   29.5700    6.2900   52.9300 H   0  0  0  0  0  0  0  0  0  0  0  0
   30.1900    7.0800   50.5800 H   0  0  0  0  0  0  0  0  0  0  0  0
   28.6300    8.4600   49.3500 H   0  0  0  0  0  0  0  0  0  0  0  0
   26.4800    8.9700   50.2300 H   0  0  0  0  0  0  0  0  0  0  0  0
   25.8600    8.4600   52.6700 H   0  0  0  0  0  0  0  0  0  0  0  0
   25.7000    8.4200   59.3300 H   0  0  0  0  0  0  0  0  0  0  0  0
   24.6500    9.6100   58.5900 H   0  0  0  0  0  0  0  0  0  0  0  0
   26.1400    9.3000   57.7900 H   0  0  0  0  0  0  0  0  0  0  0  0
   24.0100    2.2800   52.3400 H   0  0  0  0  0  0  0  0  0  0  0  0
   23.5000    1.6800   50.7700 H   0  0  0  0  0  0  0  0  0  0  0  0
   21.8500    3.4000   50.4900 H   0  0  0  0  0  0  0  0  0  0  0  0
   21.6800    2.8600   52.1500 H   0  0  0  0  0  0  0  0  0  0  0  0
   23.5000    5.5700   49.9700 H   0  0  0  0  0  0  0  0  0  0  0  0
   23.9800    6.6600   51.2700 H   0  0  0  0  0  0  0  0  0  0  0  0
   25.6200    5.1300   50.1900 H   0  0  0  0  0  0  0  0  0  0  0  0
   24.7000    3.6100   47.6400 H   0  0  0  0  0  0  0  0  0  0  0  0
   23.1100    2.6800   45.8600 H   0  0  0  0  0  0  0  0  0  0  0  0
   23.9400   -1.2700   47.3600 H   0  0  0  0  0  0  0  0  0  0  0  0
   24.9900   -0.2800   49.3800 H   0  0  0  0  0  0  0  0  0  0  0  0
   22.8800    0.6900   44.3700 H   0  0  0  0  0  0  0  0  0  0  0  0
   21.5900    0.2700   45.5200 H   0  0  0  0  0  0  0  0  0  0  0  0
   22.8900   -0.9400   45.1100 H   0  0  0  0  0  0  0  0  0  0  0  0
  1  2  1  0  0  0  0
  2  3  4  0  0  0  0
  3  5  1  0  0  0  0
  5  6  1  0  0  0  0
  6  7  4  0  0  0  0
  7  8  4  0  0  0  0
  8  9  4  0  0  0  0
  9 10  4  0  0  0  0
  6 11  4  0  0  0  0
 10 11  4  0  0  0  0
  4 12  1  0  0  0  0
  3 14  1  0  0  0  0
 12 14  1  0  0  0  0
 13 14  2  0  0  0  0
  4 15  1  0  0  0  0
  1 17  2  0  0  0  0
 16 18  1  0  0  0  0
 18 19  1  0  0  0  0
 19 20  1  0  0  0  0
  1 21  1  0  0  0  0
 20 21  1  0  0  0  0
 16 22  1  0  0  0  0
 21 22  1  0  0  0  0
 22 23  1  0  0  0  0
 23 24  1  0  0  0  0
 24 25  4  0  0  0  0
 25 26  4  0  0  0  0
 26 27  4  0  0  0  0
 27 28  4  0  0  0  0
 24 29  4  0  0  0  0
 28 29  4  0  0  0  0
 23 30  2  0  0  0  0
 23 31  2  0  0  0  0
 27 32  1  0  0  0  0
  2 33  1  0  0  0  0
  4 34  1  0  0  0  0
  4 35  1  0  0  0  0
  5 36  1  0  0  0  0
  5 37  1  0  0  0  0
  7 38  1  0  0  0  0
  8 39  1  0  0  0  0
  9 40  1  0  0  0  0
 10 41  1  0  0  0  0
 11 42  1  0  0  0  0
 15 43  1  0  0  0  0
 15 44  1  0  0  0  0
 15 45  1  0  0  0  0
 16 46  1  0  0  0  0
 16 47  1  0  0  0  0
 18 48  1  0  0  0  0
 18 49  1  0  0  0  0
 20 50  1  0  0  0  0
 20 51  1  0  0  0  0
 21 52  1  0  0  0  0
 25 53  1  0  0  0  0
 26 54  1  0  0  0  0
 28 55  1  0  0  0  0
 29 56  1  0  0  0  0
 32 57  1  0  0  0  0
 32 58  1  0  0  0  0
 32 59  1  0  0  0  0
M  CHG  1   1   1
M  END
