 xtb: 6.7.1 (edcfbbe)
          01052609073D

 59 61  0     0  0            999 V2000
   22.9000   10.6700   52.3200 C   0  0  0  0  0  0  0  0  0  0  0  0
   22.6600   11.6500   53.2700 N   0  0  0  0  0  0  0  0  0  0  0  0
   23.4000   12.1800   54.3400 C   0  0  0  0  0  0  0  0  0  0  0  0
   22.4900   14.1900   57.3400 C   0  0  0  0  0  0  0  0  0  0  0  0
   24.9100   12.1800   54.3700 C   0  0  0  0  0  0  0  0  0  0  0  0
   25.6800   13.0400   53.3900 C   0  0  0  0  0  0  0  0  0  0  0  0
   26.2400   12.5800   52.1900 C   0  0  0  0  0  0  0  0  0  0  0  0
   26.8900   13.4800   51.3300 C   0  0  0  0  0  0  0  0  0  0  0  0
   26.9500   14.8300   51.6600 C   0  0  0  0  0  0  0  0  0  0  0  0
   26.4600   15.3300   52.8800 C   0  0  0  0  0  0  0  0  0  0  0  0
   25.7600   14.4000   53.6600 C   0  0  0  0  0  0  0  0  0  0  0  0
   23.1800   13.5800   56.2500 O   0  0  0  0  0  0  0  0  0  0  0  0
   21.3100   13.0300   55.0200 O   0  0  0  0  0  0  0  0  0  0  0  0
   22.5200   13.0200   55.2000 C   0  0  0  0  0  0  0  0  0  0  0  0
   23.5400   15.0100   58.1100 C   0  0  0  0  0  0  0  0  0  0  0  0
   20.3200    8.7700   52.8800 C   0  0  0  0  0  0  0  0  0  0  0  0
   23.9500   10.0500   52.2900 O   0  0  0  0  0  0  0  0  0  0  0  0
   19.0100    9.5600   52.8500 C   0  0  0  0  0  0  0  0  0  0  0  0
   19.3600   11.3700   52.8200 S   0  0  0  0  0  0  0  0  0  0  0  0
   20.5900   11.4300   51.4500 C   0  0  0  0  0  0  0  0  0  0  0  0
   21.6600   10.3300   51.5000 C   0  0  0  0  0  0  0  0  0  0  0  0
   21.1200    8.9800   51.6700 N   0  0  0  0  0  0  0  0  0  0  0  0
   22.0800    7.6500   51.2000 S   0  0  0  0  0  0  0  0  0  0  0  0
   20.7600    6.4900   50.8600 C   0  0  0  0  0  0  0  0  0  0  0  0
   19.9300    6.5700   49.7400 C   0  0  0  0  0  0  0  0  0  0  0  0
   19.0300    5.5100   49.5300 C   0  0  0  0  0  0  0  0  0  0  0  0
   18.7300    4.5500   50.5000 C   0  0  0  0  0  0  0  0  0  0  0  0
   19.5800    4.5000   51.6100 C   0  0  0  0  0  0  0  0  0  0  0  0
   20.6300    5.4200   51.7500 C   0  0  0  0  0  0  0  0  0  0  0  0
   22.8900    7.1700   52.3300 O   0  0  0  0  0  0  0  0  0  0  0  0
   22.7500    8.0200   49.9500 O   0  0  0  0  0  0  0  0  0  0  0  0
   17.5500    3.6100   50.3400 C   0  0  0  0  0  0  0  0  0  0  0  0
   21.6800   11.8600   53.4100 H   0  0  0  0  0  0  0  0  0  0  0  0
   21.7000   14.9000   57.0700 H   0  0  0  0  0  0  0  0  0  0  0  0
   22.2000   13.4000   58.0400 H   0  0  0  0  0  0  0  0  0  0  0  0
   25.2500   12.6200   55.3100 H   0  0  0  0  0  0  0  0  0  0  0  0
   25.1900   11.1300   54.3200 H   0  0  0  0  0  0  0  0  0  0  0  0
   26.1900   11.5200   51.9400 H   0  0  0  0  0  0  0  0  0  0  0  0
   27.1800   13.1300   50.3500 H   0  0  0  0  0  0  0  0  0  0  0  0
   27.4200   15.4400   50.8900 H   0  0  0  0  0  0  0  0  0  0  0  0
   26.4600   16.4000   53.0200 H   0  0  0  0  0  0  0  0  0  0  0  0
   25.3900   14.7200   54.6300 H   0  0  0  0  0  0  0  0  0  0  0  0
   23.1800   16.0300   58.3100 H   0  0  0  0  0  0  0  0  0  0  0  0
   24.5000   15.0900   57.5900 H   0  0  0  0  0  0  0  0  0  0  0  0
   23.6300   14.5900   59.1300 H   0  0  0  0  0  0  0  0  0  0  0  0
   20.9300    9.0800   53.7400 H   0  0  0  0  0  0  0  0  0  0  0  0
   20.0900    7.7400   53.2000 H   0  0  0  0  0  0  0  0  0  0  0  0
   18.4300    9.2300   51.9700 H   0  0  0  0  0  0  0  0  0  0  0  0
   18.4200    9.2700   53.7200 H   0  0  0  0  0  0  0  0  0  0  0  0
   19.8800   11.3100   50.6100 H   0  0  0  0  0  0  0  0  0  0  0  0
   20.9300   12.4600   51.2500 H   0  0  0  0  0  0  0  0  0  0  0  0
   22.1300   10.3100   50.5000 H   0  0  0  0  0  0  0  0  0  0  0  0
   20.0700    7.2900   48.9400 H   0  0  0  0  0  0  0  0  0  0  0  0
   18.4100    5.5400   48.6400 H   0  0  0  0  0  0  0  0  0  0  0  0
   19.4600    3.7500   52.3900 H   0  0  0  0  0  0  0  0  0  0  0  0
   21.2000    5.2500   52.6500 H   0  0  0  0  0  0  0  0  0  0  0  0
   17.7000    2.5300   50.2400 H   0  0  0  0  0  0  0  0  0  0  0  0
   16.9100    3.9100   49.5000 H   0  0  0  0  0  0  0  0  0  0  0  0
   16.9900    3.7000   51.2700 H   0  0  0  0  0  0  0  0  0  0  0  0
  1  2  1  0  0  0  0
  2  3  4  0  0  0  0
  3  5  1  0  0  0  0
  5  6  1  0  0  0  0
  6  7  4  0  0  0  0
  7  8  4  0  0  0  0
  8  9  4  0  0  0  0
  9 10  4  0  0  0  0
  6 11  4  0  0  0  0
 10 11  4  0  0  0  0
  4 12  1  0  0  0  0
  3 14  1  0  0  0  0
 12 14  1  0  0  0  0
 13 14  2  0  0  0  0
  4 15  1  0  0  0  0
  1 17  2  0  0  0  0
 16 18  1  0  0  0  0
 18 19  1  0  0  0  0
 19 20  1  0  0  0  0
  1 21  1  0  0  0  0
 20 21  1  0  0  0  0
 16 22  1  0  0  0  0
 21 22  1  0  0  0  0
 22 23  1  0  0  0  0
 23 24  1  0  0  0  0
 24 25  4  0  0  0  0
 25 26  4  0  0  0  0
 26 27  4  0  0  0  0
 27 28  4  0  0  0  0
 24 29  4  0  0  0  0
 28 29  4  0  0  0  0
 23 30  2  0  0  0  0
 23 31  2  0  0  0  0
 27 32  1  0  0  0  0
  2 33  1  0  0  0  0
  4 34  1  0  0  0  0
  4 35  1  0  0  0  0
  5 36  1  0  0  0  0
  5 37  1  0  0  0  0
  7 38  1  0  0  0  0
  8 39  1  0  0  0  0
  9 40  1  0  0  0  0
 10 41  1  0  0  0  0
 11 42  1  0  0  0  0
 15 43  1  0  0  0  0
 15 44  1  0  0  0  0
 15 45  1  0  0  0  0
 16 46  1  0  0  0  0
 16 47  1  0  0  0  0
 18 48  1  0  0  0  0
 18 49  1  0  0  0  0
 20 50  1  0  0  0  0
 20 51  1  0  0  0  0
 21 52  1  0  0  0  0
 25 53  1  0  0  0  0
 26 54  1  0  0  0  0
 28 55  1  0  0  0  0
 29 56  1  0  0  0  0
 32 57  1  0  0  0  0
 32 58  1  0  0  0  0
 32 59  1  0  0  0  0
M  CHG  1   1   1
M  END
