 xtb: 6.7.1 (edcfbbe)
          01052609073D

185183  0     0  0            999 V2000
   14.3400    3.7500   44.9600 N   0  0  0  0  0  0  0  0  0  0  0  0
   14.4600    4.7400   45.1500 H   0  0  0  0  0  0  0  0  0  0  0  0
   14.5100    2.8400   46.0800 C   0  0  0  0  0  0  0  0  0  0  0  0
   13.7400    2.0700   46.0700 H   0  0  0  0  0  0  0  0  0  0  0  0
   15.9100    2.2400   46.0000 C   0  0  0  0  0  0  0  0  0  0  0  0
   16.0700    1.6300   45.1100 H   0  0  0  0  0  0  0  0  0  0  0  0
   15.9300    1.5200   46.8200 H   0  0  0  0  0  0  0  0  0  0  0  0
   17.0500    3.1900   46.2800 C   0  0  0  0  0  0  0  0  0  0  0  0
   17.7000    3.7900   45.2000 C   0  0  0  0  0  0  0  0  0  0  0  0
   17.4200    3.5500   44.1800 H   0  0  0  0  0  0  0  0  0  0  0  0
   18.7800    4.6700   45.3700 C   0  0  0  0  0  0  0  0  0  0  0  0
   19.5200    5.0500   44.6900 H   0  0  0  0  0  0  0  0  0  0  0  0
   19.0100    5.1800   46.6500 C   0  0  0  0  0  0  0  0  0  0  0  0
   19.8300    5.8500   46.8700 H   0  0  0  0  0  0  0  0  0  0  0  0
   18.2600    4.7200   47.7400 C   0  0  0  0  0  0  0  0  0  0  0  0
   18.4300    5.0700   48.7500 H   0  0  0  0  0  0  0  0  0  0  0  0
   17.3600    3.6700   47.5600 C   0  0  0  0  0  0  0  0  0  0  0  0
   16.8600    3.3100   48.4500 H   0  0  0  0  0  0  0  0  0  0  0  0
   14.2400    3.4300   47.4600 C   0  0  0  0  0  0  0  0  0  0  0  0
   14.1500    2.6100   48.3700 O   0  0  0  0  0  0  0  0  0  0  0  0
   13.9600    4.7200   47.6200 N   0  0  0  0  0  0  0  0  0  0  0  0
   14.2100    5.3500   46.8700 H   0  0  0  0  0  0  0  0  0  0  0  0
   13.4700    5.2500   48.8700 C   0  0  0  0  0  0  0  0  0  0  0  0
   12.8700    4.5000   49.3900 H   0  0  0  0  0  0  0  0  0  0  0  0
   14.7600    5.5700   49.6300 C   0  0  0  0  0  0  0  0  0  0  0  0
   15.2600    6.4300   49.1900 H   0  0  0  0  0  0  0  0  0  0  0  0
   15.4700    4.7500   49.6300 H   0  0  0  0  0  0  0  0  0  0  0  0
   14.4400    5.8200   51.1000 C   0  0  0  0  0  0  0  0  0  0  0  0
   13.3100    5.6100   51.5900 O   0  0  0  0  0  0  0  0  0  0  0  0
   15.2800    6.1800   51.9600 O   0  0  0  0  0  0  0  0  0  0  0  0
   12.7400    6.5800   48.7500 C   0  0  0  0  0  0  0  0  0  0  0  0
   13.2500    7.4300   48.0200 O   0  0  0  0  0  0  0  0  0  0  0  0
   28.8500   13.9900   59.9300 N   0  0  0  0  0  0  0  0  0  0  0  0
   28.7500   14.8900   59.4800 H   0  0  0  0  0  0  0  0  0  0  0  0
   29.0500   12.8500   59.0500 C   0  0  0  0  0  0  0  0  0  0  0  0
   28.6500   13.1600   58.0900 H   0  0  0  0  0  0  0  0  0  0  0  0
   30.5400   12.7700   58.7300 C   0  0  0  0  0  0  0  0  0  0  0  0
   30.8200   13.8000   58.4900 H   0  0  0  0  0  0  0  0  0  0  0  0
   30.6300   12.1900   57.8100 H   0  0  0  0  0  0  0  0  0  0  0  0
   31.3500   12.1600   59.8700 C   0  0  0  0  0  0  0  0  0  0  0  0
   30.8400   11.2400   60.1600 H   0  0  0  0  0  0  0  0  0  0  0  0
   31.4300   12.8800   60.6900 H   0  0  0  0  0  0  0  0  0  0  0  0
   32.8100   11.8600   59.5800 C   0  0  0  0  0  0  0  0  0  0  0  0
   33.4800   12.3900   58.7000 O   0  0  0  0  0  0  0  0  0  0  0  0
   33.4400   10.8800   60.2400 N   0  0  0  0  0  0  0  0  0  0  0  0
   33.0000   10.4800   61.0500 H   0  0  0  0  0  0  0  0  0  0  0  0
   34.4400   10.9900   60.1500 H   0  0  0  0  0  0  0  0  0  0  0  0
   28.2600   11.5900   59.3600 C   0  0  0  0  0  0  0  0  0  0  0  0
   28.7200   10.4600   59.1800 O   0  0  0  0  0  0  0  0  0  0  0  0
   27.0600   11.7200   59.9400 N   0  0  0  0  0  0  0  0  0  0  0  0
   26.7000   12.6600   60.0600 H   0  0  0  0  0  0  0  0  0  0  0  0
   26.2200   10.5800   60.2300 C   0  0  0  0  0  0  0  0  0  0  0  0
   26.7700    9.7600   60.7100 H   0  0  0  0  0  0  0  0  0  0  0  0
   25.3200   11.0900   61.3600 C   0  0  0  0  0  0  0  0  0  0  0  0
   24.6700   10.2600   61.6500 H   0  0  0  0  0  0  0  0  0  0  0  0
   24.6300   11.8700   61.0300 H   0  0  0  0  0  0  0  0  0  0  0  0
   26.1100   11.6500   62.5300 C   0  0  0  0  0  0  0  0  0  0  0  0
   26.4800   12.6700   62.5200 H   0  0  0  0  0  0  0  0  0  0  0  0
   27.0300   11.1100   62.7600 H   0  0  0  0  0  0  0  0  0  0  0  0
   25.3500   11.6100   63.8500 C   0  0  0  0  0  0  0  0  0  0  0  0
   26.0000   11.4300   64.9100 O   0  0  0  0  0  0  0  0  0  0  0  0
   24.1200   11.8000   63.8800 O   0  0  0  0  0  0  0  0  0  0  0  0
   25.3600   10.1300   59.0600 C   0  0  0  0  0  0  0  0  0  0  0  0
   24.8600    9.0100   59.1100 O   0  0  0  0  0  0  0  0  0  0  0  0
   25.3200   10.9500   58.0100 N   0  0  0  0  0  0  0  0  0  0  0  0
   25.8800   11.7800   58.1500 H   0  0  0  0  0  0  0  0  0  0  0  0
   24.7900   10.7400   56.6800 C   0  0  0  0  0  0  0  0  0  0  0  0
   24.1500    9.8600   56.7100 H   0  0  0  0  0  0  0  0  0  0  0  0
   23.9100   11.8600   56.1300 C   0  0  0  0  0  0  0  0  0  0  0  0
   23.6000   11.6900   55.1100 H   0  0  0  0  0  0  0  0  0  0  0  0
   22.6700   12.1000   56.9800 C   0  0  0  0  0  0  0  0  0  0  0  0
   22.0100   12.5300   56.2300 H   0  0  0  0  0  0  0  0  0  0  0  0
   22.4000   11.1000   57.3400 H   0  0  0  0  0  0  0  0  0  0  0  0
   22.9200   12.6900   57.8600 H   0  0  0  0  0  0  0  0  0  0  0  0
   24.5800   13.2400   56.0400 C   0  0  0  0  0  0  0  0  0  0  0  0
   24.8000   13.5900   57.0500 H   0  0  0  0  0  0  0  0  0  0  0  0
   25.5400   13.2100   55.5300 H   0  0  0  0  0  0  0  0  0  0  0  0
   23.9300   13.9400   55.5100 H   0  0  0  0  0  0  0  0  0  0  0  0
   25.9300   10.4500   55.7200 C   0  0  0  0  0  0  0  0  0  0  0  0
   27.0500   10.8600   56.0100 O   0  0  0  0  0  0  0  0  0  0  0  0
   25.6900    9.8700   54.5400 N   0  0  0  0  0  0  0  0  0  0  0  0
   24.7500    9.8500   54.1800 H   0  0  0  0  0  0  0  0  0  0  0  0
   26.6600    9.8600   53.4600 C   0  0  0  0  0  0  0  0  0  0  0  0
   27.5800    9.4000   53.8300 H   0  0  0  0  0  0  0  0  0  0  0  0
   26.1400    9.0800   52.2600 C   0  0  0  0  0  0  0  0  0  0  0  0
   26.9200    9.0700   51.5000 H   0  0  0  0  0  0  0  0  0  0  0  0
   25.9300    7.6200   52.6500 C   0  0  0  0  0  0  0  0  0  0  0  0
   25.1400    7.5800   53.4000 H   0  0  0  0  0  0  0  0  0  0  0  0
   25.5200    7.0700   51.8000 H   0  0  0  0  0  0  0  0  0  0  0  0
   26.8900    7.1900   52.9600 H   0  0  0  0  0  0  0  0  0  0  0  0
   24.9600    9.8100   51.6200 C   0  0  0  0  0  0  0  0  0  0  0  0
   25.3400   10.7400   51.2200 H   0  0  0  0  0  0  0  0  0  0  0  0
   24.2200   10.0700   52.3700 H   0  0  0  0  0  0  0  0  0  0  0  0
   24.4400    9.0300   50.4200 C   0  0  0  0  0  0  0  0  0  0  0  0
   25.3800    8.6600   50.0100 H   0  0  0  0  0  0  0  0  0  0  0  0
   23.9500    8.1000   50.7000 H   0  0  0  0  0  0  0  0  0  0  0  0
   23.8100    9.5900   49.7200 H   0  0  0  0  0  0  0  0  0  0  0  0
   27.0900   11.2600   53.0400 C   0  0  0  0  0  0  0  0  0  0  0  0
   26.3000   12.2100   53.0900 O   0  0  0  0  0  0  0  0  0  0  0  0
   28.3400    4.7300   48.9100 N   0  0  0  0  0  0  0  0  0  0  0  0
   28.0200    4.8000   47.9500 H   0  0  0  0  0  0  0  0  0  0  0  0
   28.5700    3.4100   49.4500 C   0  0  0  0  0  0  0  0  0  0  0  0
   28.9200    3.5200   50.4800 H   0  0  0  0  0  0  0  0  0  0  0  0
   27.2300    2.6800   49.4200 C   0  0  0  0  0  0  0  0  0  0  0  0
   27.4200    1.6300   49.6600 H   0  0  0  0  0  0  0  0  0  0  0  0
   26.7400    2.7600   48.4500 H   0  0  0  0  0  0  0  0  0  0  0  0
   26.1600    3.3100   50.2900 C   0  0  0  0  0  0  0  0  0  0  0  0
   26.1500    3.2200   51.6800 C   0  0  0  0  0  0  0  0  0  0  0  0
   26.9700    2.6900   52.1300 H   0  0  0  0  0  0  0  0  0  0  0  0
   25.0800    3.6600   52.4700 C   0  0  0  0  0  0  0  0  0  0  0  0
   25.1200    3.5800   53.5500 H   0  0  0  0  0  0  0  0  0  0  0  0
   23.9700    4.2100   51.8000 C   0  0  0  0  0  0  0  0  0  0  0  0
   22.8500    4.5000   52.5200 O   0  0  0  0  0  0  0  0  0  0  0  0
   22.8100    3.9500   53.3100 H   0  0  0  0  0  0  0  0  0  0  0  0
   23.9700    4.3800   50.4000 C   0  0  0  0  0  0  0  0  0  0  0  0
   23.1200    4.8300   49.9100 H   0  0  0  0  0  0  0  0  0  0  0  0
   25.1000    3.9800   49.6700 C   0  0  0  0  0  0  0  0  0  0  0  0
   24.9900    4.0100   48.5900 H   0  0  0  0  0  0  0  0  0  0  0  0
   29.7000    2.6500   48.7800 C   0  0  0  0  0  0  0  0  0  0  0  0
   30.0700    1.5900   49.2800 O   0  0  0  0  0  0  0  0  0  0  0  0
   24.4700   -1.9900   49.0800 N   0  0  0  0  0  0  0  0  0  0  0  0
   24.3400   -1.8100   48.0900 H   0  0  0  0  0  0  0  0  0  0  0  0
   23.4700   -2.7500   49.8000 C   0  0  0  0  0  0  0  0  0  0  0  0
   24.0300   -3.2900   50.5600 H   0  0  0  0  0  0  0  0  0  0  0  0
   22.5500   -1.7800   50.5400 C   0  0  0  0  0  0  0  0  0  0  0  0
   21.7000   -2.3800   50.8800 H   0  0  0  0  0  0  0  0  0  0  0  0
   22.0300   -1.0900   49.8700 H   0  0  0  0  0  0  0  0  0  0  0  0
   23.0800   -0.9900   51.7000 C   0  0  0  0  0  0  0  0  0  0  0  0
   23.3400   -1.4300   52.9900 N   0  0  0  0  0  0  0  0  0  0  0  0
   23.9700   -0.4700   53.6700 C   0  0  0  0  0  0  0  0  0  0  0  0
   24.3500   -0.4800   54.6800 H   0  0  0  0  0  0  0  0  0  0  0  0
   24.0300    0.6300   52.9000 N   0  0  0  0  0  0  0  0  0  0  0  0
   24.3900    1.5200   53.2200 H   0  0  0  0  0  0  0  0  0  0  0  0
   23.5000    0.3200   51.6600 C   0  0  0  0  0  0  0  0  0  0  0  0
   23.6100    0.9700   50.8100 H   0  0  0  0  0  0  0  0  0  0  0  0
   22.7500   -3.7700   48.9400 C   0  0  0  0  0  0  0  0  0  0  0  0
   21.9400   -3.4200   48.0900 O   0  0  0  0  0  0  0  0  0  0  0  0
   19.6700   -3.8700   46.3300 N   0  0  0  0  0  0  0  0  0  0  0  0
   20.5600   -3.9000   46.8000 H   0  0  0  0  0  0  0  0  0  0  0  0
   19.0000   -2.5900   46.3700 C   0  0  0  0  0  0  0  0  0  0  0  0
   18.2300   -2.6800   45.6000 H   0  0  0  0  0  0  0  0  0  0  0  0
   18.2200   -2.4100   47.6700 C   0  0  0  0  0  0  0  0  0  0  0  0
   17.6200   -3.3100   47.8400 H   0  0  0  0  0  0  0  0  0  0  0  0
   19.1900   -2.2400   48.8300 C   0  0  0  0  0  0  0  0  0  0  0  0
   18.7000   -2.0000   49.7700 H   0  0  0  0  0  0  0  0  0  0  0  0
   19.6900   -3.2000   48.9100 H   0  0  0  0  0  0  0  0  0  0  0  0
   19.9200   -1.4600   48.6100 H   0  0  0  0  0  0  0  0  0  0  0  0
   17.2900   -1.2000   47.7000 C   0  0  0  0  0  0  0  0  0  0  0  0
   16.8100   -0.9800   46.7500 H   0  0  0  0  0  0  0  0  0  0  0  0
   17.8300   -0.2900   47.9500 H   0  0  0  0  0  0  0  0  0  0  0  0
   16.0900   -1.5100   48.5900 C   0  0  0  0  0  0  0  0  0  0  0  0
   15.3900   -2.1800   48.0700 H   0  0  0  0  0  0  0  0  0  0  0  0
   16.2900   -1.8700   49.6000 H   0  0  0  0  0  0  0  0  0  0  0  0
   15.5000   -0.6100   48.7500 H   0  0  0  0  0  0  0  0  0  0  0  0
   19.8400   -1.3900   45.9500 C   0  0  0  0  0  0  0  0  0  0  0  0
   19.3800   -0.5900   45.1500 O   0  0  0  0  0  0  0  0  0  0  0  0
   21.1400   -1.3800   46.2900 N   0  0  0  0  0  0  0  0  0  0  0  0
   21.5000   -2.0900   46.9100 H   0  0  0  0  0  0  0  0  0  0  0  0
   22.1000   -0.4000   45.8300 C   0  0  0  0  0  0  0  0  0  0  0  0
   21.6300    0.1200   45.0100 H   0  0  0  0  0  0  0  0  0  0  0  0
   22.3800    0.6500   46.9000 C   0  0  0  0  0  0  0  0  0  0  0  0
   22.8100    0.2000   47.7900 H   0  0  0  0  0  0  0  0  0  0  0  0
   23.4600    1.6000   46.3900 C   0  0  0  0  0  0  0  0  0  0  0  0
   22.9400    2.1000   45.5800 H   0  0  0  0  0  0  0  0  0  0  0  0
   23.8900    2.2200   47.1800 H   0  0  0  0  0  0  0  0  0  0  0  0
   24.2800    0.9600   46.0400 H   0  0  0  0  0  0  0  0  0  0  0  0
   21.1400    1.4300   47.3200 C   0  0  0  0  0  0  0  0  0  0  0  0
   20.5200    0.6300   47.7200 H   0  0  0  0  0  0  0  0  0  0  0  0
   20.6400    1.7500   46.4000 H   0  0  0  0  0  0  0  0  0  0  0  0
   21.4500    2.5800   48.2700 C   0  0  0  0  0  0  0  0  0  0  0  0
   20.4700    2.8100   48.6900 H   0  0  0  0  0  0  0  0  0  0  0  0
   22.1800    2.2800   49.0300 H   0  0  0  0  0  0  0  0  0  0  0  0
   21.8600    3.4500   47.7400 H   0  0  0  0  0  0  0  0  0  0  0  0
   23.3000   -1.2000   45.3300 C   0  0  0  0  0  0  0  0  0  0  0  0
   24.0800   -1.7100   46.1300 O   0  0  0  0  0  0  0  0  0  0  0  0
   14.1190    3.4220   44.0310 H   0  0  0  0  0  0  0  0  0  0  0  0
   11.8680    6.7450   49.4000 H   0  0  0  0  0  0  0  0  0  0  0  0
   28.8650   13.9980   60.9400 H   0  0  0  0  0  0  0  0  0  0  0  0
   28.0400   11.4250   52.5110 H   0  0  0  0  0  0  0  0  0  0  0  0
   28.5220    5.6390   49.3110 H   0  0  0  0  0  0  0  0  0  0  0  0
   30.1520    3.0280   47.8510 H   0  0  0  0  0  0  0  0  0  0  0  0
   25.3210   -1.6060   49.4640 H   0  0  0  0  0  0  0  0  0  0  0  0
   23.0120   -4.8200   49.1370 H   0  0  0  0  0  0  0  0  0  0  0  0
   19.2450   -4.6820   45.9050 H   0  0  0  0  0  0  0  0  0  0  0  0
   23.4320   -1.2820   44.2410 H   0  0  0  0  0  0  0  0  0  0  0  0
  1  2  1  0  0  0  0
  1  3  1  0  0  0  0
  3  4  1  0  0  0  0
  3  5  1  0  0  0  0
  5  6  1  0  0  0  0
  5  7  1  0  0  0  0
  5  8  1  0  0  0  0
  8  9  4  0  0  0  0
  9 10  1  0  0  0  0
  9 11  4  0  0  0  0
 11 12  1  0  0  0  0
 11 13  4  0  0  0  0
 13 14  1  0  0  0  0
 13 15  4  0  0  0  0
 15 16  1  0  0  0  0
  8 17  4  0  0  0  0
 15 17  4  0  0  0  0
 17 18  1  0  0  0  0
  3 19  1  0  0  0  0
 19 20  2  0  0  0  0
 19 21  4  0  0  0  0
 21 22  1  0  0  0  0
 21 23  1  0  0  0  0
 23 24  1  0  0  0  0
 23 25  1  0  0  0  0
 25 26  1  0  0  0  0
 25 27  1  0  0  0  0
 25 28  1  0  0  0  0
 28 29  4  0  0  0  0
 28 30  4  0  0  0  0
 23 31  1  0  0  0  0
 31 32  2  0  0  0  0
 33 34  1  0  0  0  0
 33 35  1  0  0  0  0
 35 36  1  0  0  0  0
 35 37  1  0  0  0  0
 37 38  1  0  0  0  0
 37 39  1  0  0  0  0
 37 40  1  0  0  0  0
 40 41  1  0  0  0  0
 40 42  1  0  0  0  0
 40 43  1  0  0  0  0
 43 44  2  0  0  0  0
 43 45  4  0  0  0  0
 45 46  1  0  0  0  0
 45 47  1  0  0  0  0
 35 48  1  0  0  0  0
 48 49  2  0  0  0  0
 48 50  4  0  0  0  0
 50 51  1  0  0  0  0
 50 52  1  0  0  0  0
 52 53  1  0  0  0  0
 52 54  1  0  0  0  0
 54 55  1  0  0  0  0
 54 56  1  0  0  0  0
 54 57  1  0  0  0  0
 57 58  1  0  0  0  0
 57 59  1  0  0  0  0
 57 60  1  0  0  0  0
 60 61  4  0  0  0  0
 60 62  4  0  0  0  0
 52 63  1  0  0  0  0
 63 64  2  0  0  0  0
 63 65  4  0  0  0  0
 65 66  1  0  0  0  0
 65 67  1  0  0  0  0
 67 68  1  0  0  0  0
 67 69  1  0  0  0  0
 69 70  1  0  0  0  0
 69 71  1  0  0  0  0
 71 72  1  0  0  0  0
 71 73  1  0  0  0  0
 71 74  1  0  0  0  0
 69 75  1  0  0  0  0
 75 76  1  0  0  0  0
 75 77  1  0  0  0  0
 75 78  1  0  0  0  0
 67 79  1  0  0  0  0
 79 80  2  0  0  0  0
 79 81  4  0  0  0  0
 81 82  1  0  0  0  0
 81 83  1  0  0  0  0
 83 84  1  0  0  0  0
 83 85  1  0  0  0  0
 85 86  1  0  0  0  0
 85 87  1  0  0  0  0
 87 88  1  0  0  0  0
 87 89  1  0  0  0  0
 87 90  1  0  0  0  0
 85 91  1  0  0  0  0
 91 92  1  0  0  0  0
 91 93  1  0  0  0  0
 91 94  1  0  0  0  0
 94 95  1  0  0  0  0
 94 96  1  0  0  0  0
 94 97  1  0  0  0  0
 83 98  1  0  0  0  0
 98 99  2  0  0  0  0
100101  1  0  0  0  0
100102  1  0  0  0  0
102103  1  0  0  0  0
102104  1  0  0  0  0
104105  1  0  0  0  0
104106  1  0  0  0  0
104107  1  0  0  0  0
107108  4  0  0  0  0
108109  1  0  0  0  0
108110  4  0  0  0  0
110111  1  0  0  0  0
110112  4  0  0  0  0
112113  1  0  0  0  0
113114  1  0  0  0  0
112115  4  0  0  0  0
115116  1  0  0  0  0
107117  4  0  0  0  0
115117  4  0  0  0  0
117118  1  0  0  0  0
102119  1  0  0  0  0
119120  2  0  0  0  0
121122  1  0  0  0  0
121123  1  0  0  0  0
123124  1  0  0  0  0
123125  1  0  0  0  0
125126  1  0  0  0  0
125127  1  0  0  0  0
125128  1  0  0  0  0
128129  4  0  0  0  0
129130  2  0  0  0  0
130131  1  0  0  0  0
130132  4  0  0  0  0
132133  1  0  0  0  0
128134  2  0  0  0  0
132134  4  0  0  0  0
134135  1  0  0  0  0
123136  1  0  0  0  0
136137  2  0  0  0  0
138139  1  0  0  0  0
138140  1  0  0  0  0
140141  1  0  0  0  0
140142  1  0  0  0  0
142143  1  0  0  0  0
142144  1  0  0  0  0
144145  1  0  0  0  0
144146  1  0  0  0  0
144147  1  0  0  0  0
142148  1  0  0  0  0
148149  1  0  0  0  0
148150  1  0  0  0  0
148151  1  0  0  0  0
151152  1  0  0  0  0
151153  1  0  0  0  0
151154  1  0  0  0  0
140155  1  0  0  0  0
155156  2  0  0  0  0
155157  4  0  0  0  0
157158  1  0  0  0  0
157159  1  0  0  0  0
159160  1  0  0  0  0
159161  1  0  0  0  0
161162  1  0  0  0  0
161163  1  0  0  0  0
163164  1  0  0  0  0
163165  1  0  0  0  0
163166  1  0  0  0  0
161167  1  0  0  0  0
167168  1  0  0  0  0
167169  1  0  0  0  0
167170  1  0  0  0  0
170171  1  0  0  0  0
170172  1  0  0  0  0
170173  1  0  0  0  0
159174  1  0  0  0  0
174175  2  0  0  0  0
  1176  1  0  0  0  0
 31177  1  0  0  0  0
 33178  1  0  0  0  0
 98179  1  0  0  0  0
100180  1  0  0  0  0
119181  1  0  0  0  0
121182  1  0  0  0  0
136183  1  0  0  0  0
138184  1  0  0  0  0
174185  1  0  0  0  0
M  CHG  1   1  -2
M  END
