 xtb: 6.7.1 (edcfbbe)
          01052609073D

209207  0     0  0            999 V2000
   21.1800    2.4100   44.8200 N   0  0  0  0  0  0  0  0  0  0  0  0
   20.8300    3.3500   44.7500 H   0  0  0  0  0  0  0  0  0  0  0  0
   21.8700    2.1500   46.0700 C   0  0  0  0  0  0  0  0  0  0  0  0
   22.1000    1.0900   46.0700 H   0  0  0  0  0  0  0  0  0  0  0  0
   23.1700    2.9500   46.1500 C   0  0  0  0  0  0  0  0  0  0  0  0
   23.5900    2.8300   45.1400 H   0  0  0  0  0  0  0  0  0  0  0  0
   23.8300    2.6100   46.9400 H   0  0  0  0  0  0  0  0  0  0  0  0
   23.1800    4.4100   46.5400 C   0  0  0  0  0  0  0  0  0  0  0  0
   23.5600    5.2800   45.5000 C   0  0  0  0  0  0  0  0  0  0  0  0
   23.7400    4.8200   44.5400 H   0  0  0  0  0  0  0  0  0  0  0  0
   23.5700    6.6600   45.7400 C   0  0  0  0  0  0  0  0  0  0  0  0
   23.5800    7.4100   44.9700 H   0  0  0  0  0  0  0  0  0  0  0  0
   23.3000    7.0500   47.0500 C   0  0  0  0  0  0  0  0  0  0  0  0
   23.3800    8.1200   47.2300 H   0  0  0  0  0  0  0  0  0  0  0  0
   23.1300    6.1900   48.1400 C   0  0  0  0  0  0  0  0  0  0  0  0
   23.1000    6.5500   49.1600 H   0  0  0  0  0  0  0  0  0  0  0  0
   23.0600    4.8200   47.8700 C   0  0  0  0  0  0  0  0  0  0  0  0
   22.8800    4.1000   48.6500 H   0  0  0  0  0  0  0  0  0  0  0  0
   21.0900    2.3800   47.3500 C   0  0  0  0  0  0  0  0  0  0  0  0
   21.4700    1.8800   48.4100 O   0  0  0  0  0  0  0  0  0  0  0  0
   20.0800    3.2500   47.3500 N   0  0  0  0  0  0  0  0  0  0  0  0
   19.7700    3.7700   46.5400 H   0  0  0  0  0  0  0  0  0  0  0  0
   19.2100    3.4600   48.4800 C   0  0  0  0  0  0  0  0  0  0  0  0
   19.1600    2.5700   49.1000 H   0  0  0  0  0  0  0  0  0  0  0  0
   19.9400    4.5200   49.3000 C   0  0  0  0  0  0  0  0  0  0  0  0
   20.0700    5.4400   48.7400 H   0  0  0  0  0  0  0  0  0  0  0  0
   20.8800    4.0400   49.5500 H   0  0  0  0  0  0  0  0  0  0  0  0
   19.3500    4.8900   50.6600 C   0  0  0  0  0  0  0  0  0  0  0  0
   18.5700    4.0700   51.1900 O   0  0  0  0  0  0  0  0  0  0  0  0
   19.8800    5.8400   51.2800 O   0  0  0  0  0  0  0  0  0  0  0  0
   17.7900    3.9000   48.1400 C   0  0  0  0  0  0  0  0  0  0  0  0
   17.6000    4.3900   47.0300 O   0  0  0  0  0  0  0  0  0  0  0  0
   26.3600   18.5400   57.9000 N   0  0  0  0  0  0  0  0  0  0  0  0
   26.1500   19.3400   57.3200 H   0  0  0  0  0  0  0  0  0  0  0  0
   26.8900   17.3900   57.1900 C   0  0  0  0  0  0  0  0  0  0  0  0
   26.6400   17.6900   56.1700 H   0  0  0  0  0  0  0  0  0  0  0  0
   28.4000   17.3400   57.3800 C   0  0  0  0  0  0  0  0  0  0  0  0
   28.7700   16.4500   56.8700 H   0  0  0  0  0  0  0  0  0  0  0  0
   28.7000   17.3000   58.4300 H   0  0  0  0  0  0  0  0  0  0  0  0
   29.0600   18.5800   56.8000 C   0  0  0  0  0  0  0  0  0  0  0  0
   29.1200   19.3700   57.5500 H   0  0  0  0  0  0  0  0  0  0  0  0
   28.5100   18.8800   55.9000 H   0  0  0  0  0  0  0  0  0  0  0  0
   30.4500   18.2600   56.2800 C   0  0  0  0  0  0  0  0  0  0  0  0
   31.4400   18.0100   56.9700 O   0  0  0  0  0  0  0  0  0  0  0  0
   30.7200   18.2700   54.9700 N   0  0  0  0  0  0  0  0  0  0  0  0
   29.9400   18.4800   54.3600 H   0  0  0  0  0  0  0  0  0  0  0  0
   31.7100   18.3800   54.7900 H   0  0  0  0  0  0  0  0  0  0  0  0
   26.1500   16.0900   57.4600 C   0  0  0  0  0  0  0  0  0  0  0  0
   26.7900   15.0400   57.5500 O   0  0  0  0  0  0  0  0  0  0  0  0
   24.8300   16.0200   57.6500 N   0  0  0  0  0  0  0  0  0  0  0  0
   24.3400   16.8900   57.8200 H   0  0  0  0  0  0  0  0  0  0  0  0
   24.0700   14.8000   57.8600 C   0  0  0  0  0  0  0  0  0  0  0  0
   24.7600   14.2300   58.4800 H   0  0  0  0  0  0  0  0  0  0  0  0
   22.7600   15.1700   58.5500 C   0  0  0  0  0  0  0  0  0  0  0  0
   22.2000   14.2400   58.5600 H   0  0  0  0  0  0  0  0  0  0  0  0
   22.3000   15.9100   57.9000 H   0  0  0  0  0  0  0  0  0  0  0  0
   22.9600   15.7000   59.9600 C   0  0  0  0  0  0  0  0  0  0  0  0
   23.2600   16.7500   60.0500 H   0  0  0  0  0  0  0  0  0  0  0  0
   23.8200   15.1300   60.3100 H   0  0  0  0  0  0  0  0  0  0  0  0
   21.8500   15.3100   60.9300 C   0  0  0  0  0  0  0  0  0  0  0  0
   22.1600   15.0600   62.1100 O   0  0  0  0  0  0  0  0  0  0  0  0
   20.6700   15.2000   60.5300 O   0  0  0  0  0  0  0  0  0  0  0  0
   23.7700   14.0800   56.5600 C   0  0  0  0  0  0  0  0  0  0  0  0
   23.1800   13.0000   56.5900 O   0  0  0  0  0  0  0  0  0  0  0  0
   24.1500   14.6700   55.4300 N   0  0  0  0  0  0  0  0  0  0  0  0
   24.5600   15.5900   55.5400 H   0  0  0  0  0  0  0  0  0  0  0  0
   24.0200   14.1000   54.1000 C   0  0  0  0  0  0  0  0  0  0  0  0
   23.9600   13.0100   54.1500 H   0  0  0  0  0  0  0  0  0  0  0  0
   22.6900   14.4700   53.4500 C   0  0  0  0  0  0  0  0  0  0  0  0
   22.7300   14.2000   52.4000 H   0  0  0  0  0  0  0  0  0  0  0  0
   21.5700   13.7000   54.1500 C   0  0  0  0  0  0  0  0  0  0  0  0
   21.5600   14.0100   55.2000 H   0  0  0  0  0  0  0  0  0  0  0  0
   20.6200   14.0500   53.7500 H   0  0  0  0  0  0  0  0  0  0  0  0
   21.7100   12.6500   53.9000 H   0  0  0  0  0  0  0  0  0  0  0  0
   22.3300   15.9500   53.4400 C   0  0  0  0  0  0  0  0  0  0  0  0
   23.0500   16.4700   52.8200 H   0  0  0  0  0  0  0  0  0  0  0  0
   21.3200   16.1400   53.0500 H   0  0  0  0  0  0  0  0  0  0  0  0
   22.4000   16.4700   54.4000 H   0  0  0  0  0  0  0  0  0  0  0  0
   25.1700   14.5800   53.2300 C   0  0  0  0  0  0  0  0  0  0  0  0
   25.8900   15.4700   53.6800 O   0  0  0  0  0  0  0  0  0  0  0  0
   25.3100   14.0900   51.9900 N   0  0  0  0  0  0  0  0  0  0  0  0
   24.6700   13.3300   51.8100 H   0  0  0  0  0  0  0  0  0  0  0  0
   26.3100   14.6000   51.0700 C   0  0  0  0  0  0  0  0  0  0  0  0
   27.3300   14.4300   51.4100 H   0  0  0  0  0  0  0  0  0  0  0  0
   26.3100   13.7700   49.7900 C   0  0  0  0  0  0  0  0  0  0  0  0
   27.1100   14.2800   49.2400 H   0  0  0  0  0  0  0  0  0  0  0  0
   26.7000   12.3600   50.2300 C   0  0  0  0  0  0  0  0  0  0  0  0
   26.8700   11.6400   49.4200 H   0  0  0  0  0  0  0  0  0  0  0  0
   27.5000   12.3100   50.9600 H   0  0  0  0  0  0  0  0  0  0  0  0
   25.8100   11.9500   50.7200 H   0  0  0  0  0  0  0  0  0  0  0  0
   25.0200   14.0300   49.0200 C   0  0  0  0  0  0  0  0  0  0  0  0
   24.9700   15.0700   48.6900 H   0  0  0  0  0  0  0  0  0  0  0  0
   24.1900   13.7100   49.6500 H   0  0  0  0  0  0  0  0  0  0  0  0
   25.0000   13.2700   47.7000 C   0  0  0  0  0  0  0  0  0  0  0  0
   24.7300   12.2300   47.8800 H   0  0  0  0  0  0  0  0  0  0  0  0
   24.3100   13.8200   47.0600 H   0  0  0  0  0  0  0  0  0  0  0  0
   25.9900   13.2600   47.2400 H   0  0  0  0  0  0  0  0  0  0  0  0
   26.0300   16.0800   50.8600 C   0  0  0  0  0  0  0  0  0  0  0  0
   24.8700   16.4900   50.7900 O   0  0  0  0  0  0  0  0  0  0  0  0
   27.0700   16.8800   50.6500 N   0  0  0  0  0  0  0  0  0  0  0  0
   27.8900   16.4700   51.0800 H   0  0  0  0  0  0  0  0  0  0  0  0
   27.0700   18.2800   50.2900 C   0  0  0  0  0  0  0  0  0  0  0  0
   26.8300   18.9500   51.1100 H   0  0  0  0  0  0  0  0  0  0  0  0
   28.5200   18.6000   49.9700 C   0  0  0  0  0  0  0  0  0  0  0  0
   28.7700   18.0900   49.0400 H   0  0  0  0  0  0  0  0  0  0  0  0
   29.1100   18.1300   50.7600 H   0  0  0  0  0  0  0  0  0  0  0  0
   28.9000   20.0800   49.8700 C   0  0  0  0  0  0  0  0  0  0  0  0
   28.6400   20.5200   50.8300 H   0  0  0  0  0  0  0  0  0  0  0  0
   28.3700   20.4800   49.0000 H   0  0  0  0  0  0  0  0  0  0  0  0
   30.3900   20.2000   49.5800 C   0  0  0  0  0  0  0  0  0  0  0  0
   30.6700   19.5000   48.7900 H   0  0  0  0  0  0  0  0  0  0  0  0
   30.9300   19.8600   50.4600 H   0  0  0  0  0  0  0  0  0  0  0  0
   30.7600   21.5600   49.2000 N   0  0  0  0  0  0  0  0  0  0  0  0
   30.1000   22.3200   49.3000 H   0  0  0  0  0  0  0  0  0  0  0  0
   32.0000   21.9500   48.9000 C   0  0  0  0  0  0  0  0  0  0  0  0
   33.0700   21.1600   48.8000 N   0  0  0  0  0  0  0  0  0  0  0  0
   32.8200   20.1800   48.8200 H   0  0  0  0  0  0  0  0  0  0  0  0
   33.9700   21.5100   48.5000 H   0  0  0  0  0  0  0  0  0  0  0  0
   32.2500   23.2500   48.6900 N   0  0  0  0  0  0  0  0  0  0  0  0
   31.5200   23.9500   48.7500 H   0  0  0  0  0  0  0  0  0  0  0  0
   33.1800   23.5300   48.4200 H   0  0  0  0  0  0  0  0  0  0  0  0
   26.1800   18.6800   49.1200 C   0  0  0  0  0  0  0  0  0  0  0  0
   25.5100   19.7000   49.2600 O   0  0  0  0  0  0  0  0  0  0  0  0
   30.9200   11.5100   47.5100 N   0  0  0  0  0  0  0  0  0  0  0  0
   30.3200   11.0600   46.8400 H   0  0  0  0  0  0  0  0  0  0  0  0
   31.8700   10.6500   48.1700 C   0  0  0  0  0  0  0  0  0  0  0  0
   31.9900   10.9100   49.2300 H   0  0  0  0  0  0  0  0  0  0  0  0
   31.3200    9.2300   48.1100 C   0  0  0  0  0  0  0  0  0  0  0  0
   32.0200    8.4900   48.4900 H   0  0  0  0  0  0  0  0  0  0  0  0
   31.1200    9.0000   47.0700 H   0  0  0  0  0  0  0  0  0  0  0  0
   30.0300    8.9200   48.8400 C   0  0  0  0  0  0  0  0  0  0  0  0
   29.9100    8.8800   50.2300 C   0  0  0  0  0  0  0  0  0  0  0  0
   30.7900    8.8200   50.8500 H   0  0  0  0  0  0  0  0  0  0  0  0
   28.7000    8.7200   50.9200 C   0  0  0  0  0  0  0  0  0  0  0  0
   28.6600    8.8400   51.9900 H   0  0  0  0  0  0  0  0  0  0  0  0
   27.5000    8.6900   50.1800 C   0  0  0  0  0  0  0  0  0  0  0  0
   26.3000    8.8100   50.8200 O   0  0  0  0  0  0  0  0  0  0  0  0
   25.5200    8.9400   50.2700 H   0  0  0  0  0  0  0  0  0  0  0  0
   27.6300    8.6700   48.7800 C   0  0  0  0  0  0  0  0  0  0  0  0
   26.7700    8.5500   48.1400 H   0  0  0  0  0  0  0  0  0  0  0  0
   28.8500    8.7500   48.1000 C   0  0  0  0  0  0  0  0  0  0  0  0
   28.8300    8.6400   47.0200 H   0  0  0  0  0  0  0  0  0  0  0  0
   33.2400   10.6800   47.5100 C   0  0  0  0  0  0  0  0  0  0  0  0
   34.0900    9.8600   47.8600 O   0  0  0  0  0  0  0  0  0  0  0  0
   32.2600    4.0200   48.2200 N   0  0  0  0  0  0  0  0  0  0  0  0
   32.1300    3.6700   47.2900 H   0  0  0  0  0  0  0  0  0  0  0  0
   31.7100    3.1500   49.2500 C   0  0  0  0  0  0  0  0  0  0  0  0
   32.3000    3.4300   50.1200 H   0  0  0  0  0  0  0  0  0  0  0  0
   30.3200    3.5600   49.7300 C   0  0  0  0  0  0  0  0  0  0  0  0
   29.5800    3.0600   49.1200 H   0  0  0  0  0  0  0  0  0  0  0  0
   30.2300    4.6500   49.6800 H   0  0  0  0  0  0  0  0  0  0  0  0
   30.1500    3.1100   51.1500 C   0  0  0  0  0  0  0  0  0  0  0  0
   30.7900    3.6500   52.2600 N   0  0  0  0  0  0  0  0  0  0  0  0
   30.5300    2.9600   53.3800 C   0  0  0  0  0  0  0  0  0  0  0  0
   30.9300    3.1500   54.3700 H   0  0  0  0  0  0  0  0  0  0  0  0
   29.6300    2.0100   53.1000 N   0  0  0  0  0  0  0  0  0  0  0  0
   29.2500    1.3500   53.7700 H   0  0  0  0  0  0  0  0  0  0  0  0
   29.4900    2.0600   51.7300 C   0  0  0  0  0  0  0  0  0  0  0  0
   28.9500    1.2800   51.2100 H   0  0  0  0  0  0  0  0  0  0  0  0
   31.9200    1.6900   48.9200 C   0  0  0  0  0  0  0  0  0  0  0  0
   31.5600    1.2900   47.8200 O   0  0  0  0  0  0  0  0  0  0  0  0
   29.9600   -0.9800   46.2100 N   0  0  0  0  0  0  0  0  0  0  0  0
   30.6600   -0.2900   46.4600 H   0  0  0  0  0  0  0  0  0  0  0  0
   28.7100   -0.4200   45.7300 C   0  0  0  0  0  0  0  0  0  0  0  0
   28.4000   -1.0400   44.8900 H   0  0  0  0  0  0  0  0  0  0  0  0
   27.6600   -0.4300   46.8300 C   0  0  0  0  0  0  0  0  0  0  0  0
   27.4600   -1.5000   46.9600 H   0  0  0  0  0  0  0  0  0  0  0  0
   28.1400    0.1200   48.1700 C   0  0  0  0  0  0  0  0  0  0  0  0
   27.5500   -0.1500   49.0400 H   0  0  0  0  0  0  0  0  0  0  0  0
   29.1800   -0.0900   48.4200 H   0  0  0  0  0  0  0  0  0  0  0  0
   28.0000    1.2000   48.1700 H   0  0  0  0  0  0  0  0  0  0  0  0
   26.3300    0.2200   46.4600 C   0  0  0  0  0  0  0  0  0  0  0  0
   26.1600   -0.0200   45.4100 H   0  0  0  0  0  0  0  0  0  0  0  0
   26.4500    1.3000   46.5100 H   0  0  0  0  0  0  0  0  0  0  0  0
   25.1100   -0.2100   47.2700 C   0  0  0  0  0  0  0  0  0  0  0  0
   25.1700    0.3400   48.2100 H   0  0  0  0  0  0  0  0  0  0  0  0
   24.2400    0.1100   46.7000 H   0  0  0  0  0  0  0  0  0  0  0  0
   25.2000   -1.2600   47.5700 H   0  0  0  0  0  0  0  0  0  0  0  0
   28.8200    0.9600   45.1100 C   0  0  0  0  0  0  0  0  0  0  0  0
   28.0400    1.3900   44.2600 O   0  0  0  0  0  0  0  0  0  0  0  0
   29.7600    1.8200   45.5000 N   0  0  0  0  0  0  0  0  0  0  0  0
   30.4100    1.5800   46.2400 H   0  0  0  0  0  0  0  0  0  0  0  0
   29.9000    3.1600   44.9800 C   0  0  0  0  0  0  0  0  0  0  0  0
   29.3500    3.3300   44.0600 H   0  0  0  0  0  0  0  0  0  0  0  0
   29.4300    4.2700   45.9200 C   0  0  0  0  0  0  0  0  0  0  0  0
   30.1700    4.1800   46.7100 H   0  0  0  0  0  0  0  0  0  0  0  0
   29.7100    5.6100   45.2600 C   0  0  0  0  0  0  0  0  0  0  0  0
   29.1200    5.7400   44.3500 H   0  0  0  0  0  0  0  0  0  0  0  0
   29.4500    6.4800   45.8700 H   0  0  0  0  0  0  0  0  0  0  0  0
   30.7700    5.7200   45.0200 H   0  0  0  0  0  0  0  0  0  0  0  0
   27.9600    4.1800   46.3300 C   0  0  0  0  0  0  0  0  0  0  0  0
   27.6800    3.1300   46.4400 H   0  0  0  0  0  0  0  0  0  0  0  0
   27.3400    4.4600   45.4900 H   0  0  0  0  0  0  0  0  0  0  0  0
   27.6900    4.8500   47.6700 C   0  0  0  0  0  0  0  0  0  0  0  0
   26.6400    5.1300   47.7400 H   0  0  0  0  0  0  0  0  0  0  0  0
   27.8800    4.1400   48.4700 H   0  0  0  0  0  0  0  0  0  0  0  0
   28.3600    5.7000   47.8000 H   0  0  0  0  0  0  0  0  0  0  0  0
   31.3600    3.2800   44.5500 C   0  0  0  0  0  0  0  0  0  0  0  0
   32.2200    3.2700   45.4300 O   0  0  0  0  0  0  0  0  0  0  0  0
   20.8080    1.6810   44.2280 H   0  0  0  0  0  0  0  0  0  0  0  0
   17.0310    3.8260   48.9320 H   0  0  0  0  0  0  0  0  0  0  0  0
   26.1700   18.6460   58.8860 H   0  0  0  0  0  0  0  0  0  0  0  0
   26.0400   17.9780   48.2850 H   0  0  0  0  0  0  0  0  0  0  0  0
   30.8150   12.4970   47.6980 H   0  0  0  0  0  0  0  0  0  0  0  0
   33.4040   11.3620   46.6630 H   0  0  0  0  0  0  0  0  0  0  0  0
   32.7130    4.9180   48.3180 H   0  0  0  0  0  0  0  0  0  0  0  0
   32.4460    1.0240   49.6190 H   0  0  0  0  0  0  0  0  0  0  0  0
   30.2400   -1.9500   46.1870 H   0  0  0  0  0  0  0  0  0  0  0  0
   31.6580    3.2800   43.4910 H   0  0  0  0  0  0  0  0  0  0  0  0
  1  2  1  0  0  0  0
  1  3  1  0  0  0  0
  3  4  1  0  0  0  0
  3  5  1  0  0  0  0
  5  6  1  0  0  0  0
  5  7  1  0  0  0  0
  5  8  1  0  0  0  0
  8  9  4  0  0  0  0
  9 10  1  0  0  0  0
  9 11  4  0  0  0  0
 11 12  1  0  0  0  0
 11 13  4  0  0  0  0
 13 14  1  0  0  0  0
 13 15  4  0  0  0  0
 15 16  1  0  0  0  0
  8 17  4  0  0  0  0
 15 17  4  0  0  0  0
 17 18  1  0  0  0  0
  3 19  1  0  0  0  0
 19 20  2  0  0  0  0
 19 21  4  0  0  0  0
 21 22  1  0  0  0  0
 21 23  1  0  0  0  0
 23 24  1  0  0  0  0
 23 25  1  0  0  0  0
 25 26  1  0  0  0  0
 25 27  1  0  0  0  0
 25 28  1  0  0  0  0
 28 29  4  0  0  0  0
 28 30  4  0  0  0  0
 23 31  1  0  0  0  0
 31 32  2  0  0  0  0
 33 34  1  0  0  0  0
 33 35  1  0  0  0  0
 35 36  1  0  0  0  0
 35 37  1  0  0  0  0
 37 38  1  0  0  0  0
 37 39  1  0  0  0  0
 37 40  1  0  0  0  0
 40 41  1  0  0  0  0
 40 42  1  0  0  0  0
 40 43  1  0  0  0  0
 43 44  2  0  0  0  0
 43 45  4  0  0  0  0
 45 46  1  0  0  0  0
 45 47  1  0  0  0  0
 35 48  1  0  0  0  0
 48 49  2  0  0  0  0
 48 50  4  0  0  0  0
 50 51  1  0  0  0  0
 50 52  1  0  0  0  0
 52 53  1  0  0  0  0
 52 54  1  0  0  0  0
 54 55  1  0  0  0  0
 54 56  1  0  0  0  0
 54 57  1  0  0  0  0
 57 58  1  0  0  0  0
 57 59  1  0  0  0  0
 57 60  1  0  0  0  0
 60 61  4  0  0  0  0
 60 62  4  0  0  0  0
 52 63  1  0  0  0  0
 63 64  2  0  0  0  0
 63 65  4  0  0  0  0
 65 66  1  0  0  0  0
 65 67  1  0  0  0  0
 67 68  1  0  0  0  0
 67 69  1  0  0  0  0
 69 70  1  0  0  0  0
 69 71  1  0  0  0  0
 71 72  1  0  0  0  0
 71 73  1  0  0  0  0
 71 74  1  0  0  0  0
 69 75  1  0  0  0  0
 75 76  1  0  0  0  0
 75 77  1  0  0  0  0
 75 78  1  0  0  0  0
 67 79  1  0  0  0  0
 79 80  2  0  0  0  0
 79 81  4  0  0  0  0
 81 82  1  0  0  0  0
 81 83  1  0  0  0  0
 83 84  1  0  0  0  0
 83 85  1  0  0  0  0
 85 86  1  0  0  0  0
 85 87  1  0  0  0  0
 87 88  1  0  0  0  0
 87 89  1  0  0  0  0
 87 90  1  0  0  0  0
 85 91  1  0  0  0  0
 91 92  1  0  0  0  0
 91 93  1  0  0  0  0
 91 94  1  0  0  0  0
 94 95  1  0  0  0  0
 94 96  1  0  0  0  0
 94 97  1  0  0  0  0
 83 98  1  0  0  0  0
 98 99  2  0  0  0  0
 98100  4  0  0  0  0
100101  1  0  0  0  0
100102  1  0  0  0  0
102103  1  0  0  0  0
102104  1  0  0  0  0
104105  1  0  0  0  0
104106  1  0  0  0  0
104107  1  0  0  0  0
107108  1  0  0  0  0
107109  1  0  0  0  0
107110  1  0  0  0  0
110111  1  0  0  0  0
110112  1  0  0  0  0
110113  1  0  0  0  0
113114  1  0  0  0  0
113115  4  0  0  0  0
115116  4  0  0  0  0
116117  1  0  0  0  0
116118  1  0  0  0  0
115119  4  0  0  0  0
119120  1  0  0  0  0
119121  1  0  0  0  0
102122  1  0  0  0  0
122123  2  0  0  0  0
124125  1  0  0  0  0
124126  1  0  0  0  0
126127  1  0  0  0  0
126128  1  0  0  0  0
128129  1  0  0  0  0
128130  1  0  0  0  0
128131  1  0  0  0  0
131132  4  0  0  0  0
132133  1  0  0  0  0
132134  4  0  0  0  0
134135  1  0  0  0  0
134136  4  0  0  0  0
136137  1  0  0  0  0
137138  1  0  0  0  0
136139  4  0  0  0  0
139140  1  0  0  0  0
131141  4  0  0  0  0
139141  4  0  0  0  0
141142  1  0  0  0  0
126143  1  0  0  0  0
143144  2  0  0  0  0
145146  1  0  0  0  0
145147  1  0  0  0  0
147148  1  0  0  0  0
147149  1  0  0  0  0
149150  1  0  0  0  0
149151  1  0  0  0  0
149152  1  0  0  0  0
152153  4  0  0  0  0
153154  2  0  0  0  0
154155  1  0  0  0  0
154156  4  0  0  0  0
156157  1  0  0  0  0
152158  2  0  0  0  0
156158  4  0  0  0  0
158159  1  0  0  0  0
147160  1  0  0  0  0
160161  2  0  0  0  0
162163  1  0  0  0  0
162164  1  0  0  0  0
164165  1  0  0  0  0
164166  1  0  0  0  0
166167  1  0  0  0  0
166168  1  0  0  0  0
168169  1  0  0  0  0
168170  1  0  0  0  0
168171  1  0  0  0  0
166172  1  0  0  0  0
172173  1  0  0  0  0
172174  1  0  0  0  0
172175  1  0  0  0  0
175176  1  0  0  0  0
175177  1  0  0  0  0
175178  1  0  0  0  0
164179  1  0  0  0  0
179180  2  0  0  0  0
179181  4  0  0  0  0
181182  1  0  0  0  0
181183  1  0  0  0  0
183184  1  0  0  0  0
183185  1  0  0  0  0
185186  1  0  0  0  0
185187  1  0  0  0  0
187188  1  0  0  0  0
187189  1  0  0  0  0
187190  1  0  0  0  0
185191  1  0  0  0  0
191192  1  0  0  0  0
191193  1  0  0  0  0
191194  1  0  0  0  0
194195  1  0  0  0  0
194196  1  0  0  0  0
194197  1  0  0  0  0
183198  1  0  0  0  0
198199  2  0  0  0  0
  1200  1  0  0  0  0
 31201  1  0  0  0  0
 33202  1  0  0  0  0
122203  1  0  0  0  0
124204  1  0  0  0  0
143205  1  0  0  0  0
145206  1  0  0  0  0
160207  1  0  0  0  0
162208  1  0  0  0  0
198209  1  0  0  0  0
M  CHG  1   1  -1
M  END
