 xtb: 6.7.1 (edcfbbe)
          01052609063D

 59 61  0     0  0            999 V2000
   41.4600   26.4800   40.5000 C   0  0  0  0  0  0  0  0  0  0  0  0
   41.5000   27.0200   41.7700 N   0  0  0  0  0  0  0  0  0  0  0  0
   42.2900   27.9800   42.4200 C   0  0  0  0  0  0  0  0  0  0  0  0
   41.5500   30.1700   45.3000 C   0  0  0  0  0  0  0  0  0  0  0  0
   43.4100   28.7500   41.7500 C   0  0  0  0  0  0  0  0  0  0  0  0
   43.0100   29.8900   40.8500 C   0  0  0  0  0  0  0  0  0  0  0  0
   43.9200   30.2900   39.8600 C   0  0  0  0  0  0  0  0  0  0  0  0
   43.5100   31.2600   38.9400 C   0  0  0  0  0  0  0  0  0  0  0  0
   42.1800   31.6900   38.8900 C   0  0  0  0  0  0  0  0  0  0  0  0
   41.2800   31.3200   39.9000 C   0  0  0  0  0  0  0  0  0  0  0  0
   41.7100   30.4000   40.8600 C   0  0  0  0  0  0  0  0  0  0  0  0
   42.2900   29.4300   44.3300 O   0  0  0  0  0  0  0  0  0  0  0  0
   40.5500   28.0300   44.0600 O   0  0  0  0  0  0  0  0  0  0  0  0
   41.6100   28.4700   43.6400 C   0  0  0  0  0  0  0  0  0  0  0  0
   40.8000   31.3400   44.6300 C   0  0  0  0  0  0  0  0  0  0  0  0
   41.9600   23.3800   40.2100 C   0  0  0  0  0  0  0  0  0  0  0  0
   42.2300   26.8800   39.6500 O   0  0  0  0  0  0  0  0  0  0  0  0
   41.3800   22.7100   41.4600 C   0  0  0  0  0  0  0  0  0  0  0  0
   40.6400   24.0200   42.5200 S   0  0  0  0  0  0  0  0  0  0  0  0
   39.5700   24.9100   41.3100 C   0  0  0  0  0  0  0  0  0  0  0  0
   40.4400   25.4000   40.1300 C   0  0  0  0  0  0  0  0  0  0  0  0
   41.0200   24.2300   39.4700 N   0  0  0  0  0  0  0  0  0  0  0  0
   41.0300   24.2500   37.7600 S   0  0  0  0  0  0  0  0  0  0  0  0
   40.1800   22.7400   37.3000 C   0  0  0  0  0  0  0  0  0  0  0  0
   38.8300   22.6300   37.6500 C   0  0  0  0  0  0  0  0  0  0  0  0
   38.1400   21.4400   37.4100 C   0  0  0  0  0  0  0  0  0  0  0  0
   38.7600   20.3800   36.7500 C   0  0  0  0  0  0  0  0  0  0  0  0
   40.1200   20.4500   36.4400 C   0  0  0  0  0  0  0  0  0  0  0  0
   40.8200   21.6200   36.7600 C   0  0  0  0  0  0  0  0  0  0  0  0
   42.4300   24.1400   37.3500 O   0  0  0  0  0  0  0  0  0  0  0  0
   40.2800   25.4500   37.4100 O   0  0  0  0  0  0  0  0  0  0  0  0
   37.9900   19.1000   36.5100 C   0  0  0  0  0  0  0  0  0  0  0  0
   40.7100   26.8800   42.3900 H   0  0  0  0  0  0  0  0  0  0  0  0
   40.7700   29.5300   45.7400 H   0  0  0  0  0  0  0  0  0  0  0  0
   42.1100   30.5300   46.1700 H   0  0  0  0  0  0  0  0  0  0  0  0
   43.9900   29.2600   42.5300 H   0  0  0  0  0  0  0  0  0  0  0  0
   44.1800   28.0900   41.3300 H   0  0  0  0  0  0  0  0  0  0  0  0
   44.9200   29.8500   39.9100 H   0  0  0  0  0  0  0  0  0  0  0  0
   44.1600   31.5500   38.1200 H   0  0  0  0  0  0  0  0  0  0  0  0
   41.8000   32.3800   38.1500 H   0  0  0  0  0  0  0  0  0  0  0  0
   40.2500   31.6100   39.7500 H   0  0  0  0  0  0  0  0  0  0  0  0
   40.9800   30.0900   41.6000 H   0  0  0  0  0  0  0  0  0  0  0  0
   39.8800   31.6600   45.1300 H   0  0  0  0  0  0  0  0  0  0  0  0
   40.6300   31.3900   43.5500 H   0  0  0  0  0  0  0  0  0  0  0  0
   41.4700   32.2000   44.5800 H   0  0  0  0  0  0  0  0  0  0  0  0
   42.7900   24.0300   40.5300 H   0  0  0  0  0  0  0  0  0  0  0  0
   42.3600   22.5300   39.6500 H   0  0  0  0  0  0  0  0  0  0  0  0
   40.6300   21.9700   41.1500 H   0  0  0  0  0  0  0  0  0  0  0  0
   42.2300   22.2600   41.9800 H   0  0  0  0  0  0  0  0  0  0  0  0
   38.7400   24.2500   41.0300 H   0  0  0  0  0  0  0  0  0  0  0  0
   39.1000   25.7800   41.7900 H   0  0  0  0  0  0  0  0  0  0  0  0
   39.7300   25.8900   39.4500 H   0  0  0  0  0  0  0  0  0  0  0  0
   38.2900   23.4600   38.1100 H   0  0  0  0  0  0  0  0  0  0  0  0
   37.0600   21.4200   37.5700 H   0  0  0  0  0  0  0  0  0  0  0  0
   40.7100   19.6200   36.0700 H   0  0  0  0  0  0  0  0  0  0  0  0
   41.8900   21.7000   36.6100 H   0  0  0  0  0  0  0  0  0  0  0  0
   36.9800   19.0900   36.9500 H   0  0  0  0  0  0  0  0  0  0  0  0
   38.4200   18.1900   36.9400 H   0  0  0  0  0  0  0  0  0  0  0  0
   37.7000   19.0700   35.4500 H   0  0  0  0  0  0  0  0  0  0  0  0
  1  2  1  0  0  0  0
  2  3  4  0  0  0  0
  3  5  1  0  0  0  0
  5  6  1  0  0  0  0
  6  7  4  0  0  0  0
  7  8  4  0  0  0  0
  8  9  4  0  0  0  0
  9 10  4  0  0  0  0
  6 11  4  0  0  0  0
 10 11  4  0  0  0  0
  4 12  1  0  0  0  0
  3 14  1  0  0  0  0
 12 14  1  0  0  0  0
 13 14  2  0  0  0  0
  4 15  1  0  0  0  0
  1 17  2  0  0  0  0
 16 18  1  0  0  0  0
 18 19  1  0  0  0  0
 19 20  1  0  0  0  0
  1 21  1  0  0  0  0
 20 21  1  0  0  0  0
 16 22  1  0  0  0  0
 21 22  1  0  0  0  0
 22 23  1  0  0  0  0
 23 24  1  0  0  0  0
 24 25  4  0  0  0  0
 25 26  4  0  0  0  0
 26 27  4  0  0  0  0
 27 28  4  0  0  0  0
 24 29  4  0  0  0  0
 28 29  4  0  0  0  0
 23 30  2  0  0  0  0
 23 31  2  0  0  0  0
 27 32  1  0  0  0  0
  2 33  1  0  0  0  0
  4 34  1  0  0  0  0
  4 35  1  0  0  0  0
  5 36  1  0  0  0  0
  5 37  1  0  0  0  0
  7 38  1  0  0  0  0
  8 39  1  0  0  0  0
  9 40  1  0  0  0  0
 10 41  1  0  0  0  0
 11 42  1  0  0  0  0
 15 43  1  0  0  0  0
 15 44  1  0  0  0  0
 15 45  1  0  0  0  0
 16 46  1  0  0  0  0
 16 47  1  0  0  0  0
 18 48  1  0  0  0  0
 18 49  1  0  0  0  0
 20 50  1  0  0  0  0
 20 51  1  0  0  0  0
 21 52  1  0  0  0  0
 25 53  1  0  0  0  0
 26 54  1  0  0  0  0
 28 55  1  0  0  0  0
 29 56  1  0  0  0  0
 32 57  1  0  0  0  0
 32 58  1  0  0  0  0
 32 59  1  0  0  0  0
M  CHG  1   1   1
M  END
