 xtb: 6.7.1 (edcfbbe)
          01052609073D

171169  0     0  0            999 V2000
   16.2400    3.5000   45.2800 N   0  0  0  0  0  0  0  0  0  0  0  0
   16.4000    4.5000   45.2200 H   0  0  0  0  0  0  0  0  0  0  0  0
   16.4400    2.8500   46.5600 C   0  0  0  0  0  0  0  0  0  0  0  0
   16.1700    1.8000   46.4500 H   0  0  0  0  0  0  0  0  0  0  0  0
   17.9500    2.9400   46.7700 C   0  0  0  0  0  0  0  0  0  0  0  0
   18.4400    2.6100   45.8500 H   0  0  0  0  0  0  0  0  0  0  0  0
   18.2300    2.2000   47.5200 H   0  0  0  0  0  0  0  0  0  0  0  0
   18.6000    4.2200   47.2400 C   0  0  0  0  0  0  0  0  0  0  0  0
   19.1200    5.0800   46.2700 C   0  0  0  0  0  0  0  0  0  0  0  0
   18.9500    4.8300   45.2300 H   0  0  0  0  0  0  0  0  0  0  0  0
   19.9400    6.1400   46.6600 C   0  0  0  0  0  0  0  0  0  0  0  0
   20.3400    6.8100   45.9000 H   0  0  0  0  0  0  0  0  0  0  0  0
   20.1900    6.3700   48.0100 C   0  0  0  0  0  0  0  0  0  0  0  0
   20.8800    7.1500   48.3100 H   0  0  0  0  0  0  0  0  0  0  0  0
   19.7300    5.5000   49.0100 C   0  0  0  0  0  0  0  0  0  0  0  0
   19.9200    5.7100   50.0500 H   0  0  0  0  0  0  0  0  0  0  0  0
   18.9200    4.4400   48.5900 C   0  0  0  0  0  0  0  0  0  0  0  0
   18.5800    3.7600   49.3600 H   0  0  0  0  0  0  0  0  0  0  0  0
   15.6200    3.2400   47.7800 C   0  0  0  0  0  0  0  0  0  0  0  0
   15.4100    2.3800   48.6200 O   0  0  0  0  0  0  0  0  0  0  0  0
   15.1600    4.5000   47.8100 N   0  0  0  0  0  0  0  0  0  0  0  0
   15.4100    5.1600   47.0800 H   0  0  0  0  0  0  0  0  0  0  0  0
   14.5000    5.0700   48.9600 C   0  0  0  0  0  0  0  0  0  0  0  0
   13.7600    4.4000   49.4100 H   0  0  0  0  0  0  0  0  0  0  0  0
   15.5800    5.2100   50.0300 C   0  0  0  0  0  0  0  0  0  0  0  0
   16.3000    5.8900   49.5800 H   0  0  0  0  0  0  0  0  0  0  0  0
   16.1800    4.3200   50.2100 H   0  0  0  0  0  0  0  0  0  0  0  0
   15.0600    5.6600   51.3900 C   0  0  0  0  0  0  0  0  0  0  0  0
   13.9600    5.2600   51.8000 O   0  0  0  0  0  0  0  0  0  0  0  0
   15.8600    6.3700   52.0500 O   0  0  0  0  0  0  0  0  0  0  0  0
   13.8700    6.4300   48.6800 C   0  0  0  0  0  0  0  0  0  0  0  0
   14.3000    7.1800   47.8100 O   0  0  0  0  0  0  0  0  0  0  0  0
   10.4000   13.1800   56.0800 N   0  0  0  0  0  0  0  0  0  0  0  0
   10.6500   13.4800   55.1400 H   0  0  0  0  0  0  0  0  0  0  0  0
   11.5000   12.8400   56.9600 C   0  0  0  0  0  0  0  0  0  0  0  0
   11.1300   12.1700   57.7400 H   0  0  0  0  0  0  0  0  0  0  0  0
   12.4000   11.8400   56.2400 C   0  0  0  0  0  0  0  0  0  0  0  0
   12.6500   12.3000   55.2800 H   0  0  0  0  0  0  0  0  0  0  0  0
   11.7600   10.9900   56.0000 H   0  0  0  0  0  0  0  0  0  0  0  0
   13.6500   11.4500   56.9900 C   0  0  0  0  0  0  0  0  0  0  0  0
   14.9000   11.7700   56.4500 C   0  0  0  0  0  0  0  0  0  0  0  0
   15.0300   12.4000   55.5800 H   0  0  0  0  0  0  0  0  0  0  0  0
   16.1100   11.4700   57.0900 C   0  0  0  0  0  0  0  0  0  0  0  0
   17.0800   11.6900   56.6900 H   0  0  0  0  0  0  0  0  0  0  0  0
   16.0300   10.8000   58.3200 C   0  0  0  0  0  0  0  0  0  0  0  0
   16.9500   10.7300   58.8900 H   0  0  0  0  0  0  0  0  0  0  0  0
   14.8100   10.3500   58.8300 C   0  0  0  0  0  0  0  0  0  0  0  0
   14.7300    9.7800   59.7400 H   0  0  0  0  0  0  0  0  0  0  0  0
   13.6200   10.6900   58.1600 C   0  0  0  0  0  0  0  0  0  0  0  0
   12.6800   10.3700   58.5900 H   0  0  0  0  0  0  0  0  0  0  0  0
   12.2100   14.0900   57.4700 C   0  0  0  0  0  0  0  0  0  0  0  0
   11.9600   15.2200   57.0600 O   0  0  0  0  0  0  0  0  0  0  0  0
   24.7600   12.3700   60.7700 N   0  0  0  0  0  0  0  0  0  0  0  0
   24.3600   13.3000   60.8200 H   0  0  0  0  0  0  0  0  0  0  0  0
   23.7600   11.3200   60.7000 C   0  0  0  0  0  0  0  0  0  0  0  0
   24.2900   10.4200   60.9900 H   0  0  0  0  0  0  0  0  0  0  0  0
   22.6500   11.6700   61.7000 C   0  0  0  0  0  0  0  0  0  0  0  0
   21.7800   11.0300   61.6000 H   0  0  0  0  0  0  0  0  0  0  0  0
   22.2600   12.6400   61.4200 H   0  0  0  0  0  0  0  0  0  0  0  0
   23.0800   11.6800   63.1700 C   0  0  0  0  0  0  0  0  0  0  0  0
   23.7600   12.5100   63.3400 H   0  0  0  0  0  0  0  0  0  0  0  0
   23.4600   10.6700   63.3400 H   0  0  0  0  0  0  0  0  0  0  0  0
   22.0500   12.0100   64.2400 C   0  0  0  0  0  0  0  0  0  0  0  0
   22.2500   11.6000   65.4000 O   0  0  0  0  0  0  0  0  0  0  0  0
   20.9700   12.5700   63.9500 O   0  0  0  0  0  0  0  0  0  0  0  0
   23.2700   10.9400   59.3100 C   0  0  0  0  0  0  0  0  0  0  0  0
   23.0000    9.7600   59.0900 O   0  0  0  0  0  0  0  0  0  0  0  0
   23.3100   11.8500   58.3400 N   0  0  0  0  0  0  0  0  0  0  0  0
   23.5900   12.7500   58.6900 H   0  0  0  0  0  0  0  0  0  0  0  0
   23.0500   11.7400   56.9200 C   0  0  0  0  0  0  0  0  0  0  0  0
   22.9100   10.6800   56.7000 H   0  0  0  0  0  0  0  0  0  0  0  0
   21.7800   12.4200   56.4200 C   0  0  0  0  0  0  0  0  0  0  0  0
   21.6200   12.0100   55.4200 H   0  0  0  0  0  0  0  0  0  0  0  0
   20.5900   11.9200   57.2300 C   0  0  0  0  0  0  0  0  0  0  0  0
   19.6700   12.3200   56.7900 H   0  0  0  0  0  0  0  0  0  0  0  0
   20.5400   10.8400   57.0900 H   0  0  0  0  0  0  0  0  0  0  0  0
   20.6200   12.2200   58.2800 H   0  0  0  0  0  0  0  0  0  0  0  0
   21.7300   13.9500   56.4700 C   0  0  0  0  0  0  0  0  0  0  0  0
   20.7500   14.2500   56.1000 H   0  0  0  0  0  0  0  0  0  0  0  0
   21.9800   14.4000   57.4200 H   0  0  0  0  0  0  0  0  0  0  0  0
   22.5200   14.2800   55.7800 H   0  0  0  0  0  0  0  0  0  0  0  0
   24.2400   12.1400   56.0700 C   0  0  0  0  0  0  0  0  0  0  0  0
   25.0800   12.9100   56.5500 O   0  0  0  0  0  0  0  0  0  0  0  0
   29.2000    6.6800   50.2900 N   0  0  0  0  0  0  0  0  0  0  0  0
   28.3600    6.7700   49.7400 H   0  0  0  0  0  0  0  0  0  0  0  0
   29.5800    5.3700   50.7800 C   0  0  0  0  0  0  0  0  0  0  0  0
   29.7200    5.4800   51.8500 H   0  0  0  0  0  0  0  0  0  0  0  0
   28.3700    4.4700   50.5200 C   0  0  0  0  0  0  0  0  0  0  0  0
   28.6400    3.4700   50.8500 H   0  0  0  0  0  0  0  0  0  0  0  0
   28.0900    4.3000   49.4900 H   0  0  0  0  0  0  0  0  0  0  0  0
   27.1300    4.9900   51.2100 C   0  0  0  0  0  0  0  0  0  0  0  0
   26.9500    4.9100   52.6000 C   0  0  0  0  0  0  0  0  0  0  0  0
   27.7700    4.5500   53.2100 H   0  0  0  0  0  0  0  0  0  0  0  0
   25.7700    5.4000   53.1600 C   0  0  0  0  0  0  0  0  0  0  0  0
   25.6300    5.4400   54.2300 H   0  0  0  0  0  0  0  0  0  0  0  0
   24.7100    5.8300   52.3400 C   0  0  0  0  0  0  0  0  0  0  0  0
   23.5500    6.3200   52.8600 O   0  0  0  0  0  0  0  0  0  0  0  0
   23.4800    6.4700   53.8000 H   0  0  0  0  0  0  0  0  0  0  0  0
   24.8600    5.8700   50.9400 C   0  0  0  0  0  0  0  0  0  0  0  0
   24.0700    6.3000   50.3500 H   0  0  0  0  0  0  0  0  0  0  0  0
   26.0800    5.4600   50.4000 C   0  0  0  0  0  0  0  0  0  0  0  0
   26.2500    5.2800   49.3500 H   0  0  0  0  0  0  0  0  0  0  0  0
   30.7600    4.7000   50.0800 C   0  0  0  0  0  0  0  0  0  0  0  0
   31.1200    3.5600   50.3900 O   0  0  0  0  0  0  0  0  0  0  0  0
   26.1300    0.3500   50.7800 N   0  0  0  0  0  0  0  0  0  0  0  0
   25.9000    0.0300   49.8500 H   0  0  0  0  0  0  0  0  0  0  0  0
   25.3400    0.0800   51.9600 C   0  0  0  0  0  0  0  0  0  0  0  0
   26.0100    0.2200   52.8100 H   0  0  0  0  0  0  0  0  0  0  0  0
   24.2700    1.1700   52.0200 C   0  0  0  0  0  0  0  0  0  0  0  0
   23.5000    1.0300   51.2600 H   0  0  0  0  0  0  0  0  0  0  0  0
   24.7200    2.1200   51.7100 H   0  0  0  0  0  0  0  0  0  0  0  0
   23.7600    1.3700   53.4200 C   0  0  0  0  0  0  0  0  0  0  0  0
   22.6600    0.6900   53.9400 N   0  0  0  0  0  0  0  0  0  0  0  0
   22.4700    1.2800   55.1200 C   0  0  0  0  0  0  0  0  0  0  0  0
   21.8000    0.9300   55.9000 H   0  0  0  0  0  0  0  0  0  0  0  0
   23.3900    2.2200   55.3900 N   0  0  0  0  0  0  0  0  0  0  0  0
   23.5000    2.7700   56.2300 H   0  0  0  0  0  0  0  0  0  0  0  0
   24.2300    2.3100   54.3000 C   0  0  0  0  0  0  0  0  0  0  0  0
   25.0900    2.9400   54.1200 H   0  0  0  0  0  0  0  0  0  0  0  0
   24.7800   -1.3300   51.8700 C   0  0  0  0  0  0  0  0  0  0  0  0
   24.3600   -1.6800   50.7700 O   0  0  0  0  0  0  0  0  0  0  0  0
   21.9900   -2.9300   49.2800 N   0  0  0  0  0  0  0  0  0  0  0  0
   22.8200   -2.6200   49.7500 H   0  0  0  0  0  0  0  0  0  0  0  0
   21.2400   -2.0200   48.4400 C   0  0  0  0  0  0  0  0  0  0  0  0
   20.6700   -2.6800   47.7900 H   0  0  0  0  0  0  0  0  0  0  0  0
   20.1500   -1.2900   49.2300 C   0  0  0  0  0  0  0  0  0  0  0  0
   19.4500   -1.9900   49.6900 H   0  0  0  0  0  0  0  0  0  0  0  0
   20.6600   -0.4800   50.4100 C   0  0  0  0  0  0  0  0  0  0  0  0
   19.7500   -0.1900   50.9300 H   0  0  0  0  0  0  0  0  0  0  0  0
   21.4100   -0.9900   51.0200 H   0  0  0  0  0  0  0  0  0  0  0  0
   21.1000    0.4400   50.0100 H   0  0  0  0  0  0  0  0  0  0  0  0
   19.3200   -0.3600   48.3500 C   0  0  0  0  0  0  0  0  0  0  0  0
   19.9700    0.4800   48.1000 H   0  0  0  0  0  0  0  0  0  0  0  0
   18.5000   -0.1300   49.0200 H   0  0  0  0  0  0  0  0  0  0  0  0
   18.6900   -0.9400   47.0900 C   0  0  0  0  0  0  0  0  0  0  0  0
   18.2400   -0.0700   46.6100 H   0  0  0  0  0  0  0  0  0  0  0  0
   19.4900   -1.2700   46.4300 H   0  0  0  0  0  0  0  0  0  0  0  0
   17.8500   -1.6000   47.3000 H   0  0  0  0  0  0  0  0  0  0  0  0
   22.1700   -1.1100   47.6500 C   0  0  0  0  0  0  0  0  0  0  0  0
   21.8500   -0.8900   46.4900 O   0  0  0  0  0  0  0  0  0  0  0  0
   23.3600   -0.7600   48.1400 N   0  0  0  0  0  0  0  0  0  0  0  0
   23.5700   -1.1100   49.0600 H   0  0  0  0  0  0  0  0  0  0  0  0
   24.2600    0.1700   47.4900 C   0  0  0  0  0  0  0  0  0  0  0  0
   23.8800    0.3900   46.4900 H   0  0  0  0  0  0  0  0  0  0  0  0
   24.3100    1.5200   48.2000 C   0  0  0  0  0  0  0  0  0  0  0  0
   24.5100    1.5000   49.2800 H   0  0  0  0  0  0  0  0  0  0  0  0
   25.3900    2.3400   47.5100 C   0  0  0  0  0  0  0  0  0  0  0  0
   26.3500    1.8200   47.6000 H   0  0  0  0  0  0  0  0  0  0  0  0
   25.0700    2.5800   46.5000 H   0  0  0  0  0  0  0  0  0  0  0  0
   25.4800    3.3000   48.0200 H   0  0  0  0  0  0  0  0  0  0  0  0
   22.9800    2.2300   48.0200 C   0  0  0  0  0  0  0  0  0  0  0  0
   22.2200    1.5200   48.3700 H   0  0  0  0  0  0  0  0  0  0  0  0
   22.7000    2.4400   46.9800 H   0  0  0  0  0  0  0  0  0  0  0  0
   22.8100    3.5000   48.8600 C   0  0  0  0  0  0  0  0  0  0  0  0
   21.7400    3.7200   48.8600 H   0  0  0  0  0  0  0  0  0  0  0  0
   23.1800    3.3400   49.8700 H   0  0  0  0  0  0  0  0  0  0  0  0
   23.2900    4.3500   48.3700 H   0  0  0  0  0  0  0  0  0  0  0  0
   25.5900   -0.5400   47.2500 C   0  0  0  0  0  0  0  0  0  0  0  0
   26.0600   -1.1600   48.2000 O   0  0  0  0  0  0  0  0  0  0  0  0
   15.8920    3.0310   44.4560 H   0  0  0  0  0  0  0  0  0  0  0  0
   12.9550    6.7510   49.1990 H   0  0  0  0  0  0  0  0  0  0  0  0
    9.4380   13.2250   56.3830 H   0  0  0  0  0  0  0  0  0  0  0  0
   12.8130   13.9410   58.3780 H   0  0  0  0  0  0  0  0  0  0  0  0
   25.7180   12.2030   60.4960 H   0  0  0  0  0  0  0  0  0  0  0  0
   24.3390   11.6530   55.0880 H   0  0  0  0  0  0  0  0  0  0  0  0
   29.4430    7.5900   50.6540 H   0  0  0  0  0  0  0  0  0  0  0  0
   31.2630    5.2860   49.2960 H   0  0  0  0  0  0  0  0  0  0  0  0
   27.0880    0.6590   50.8630 H   0  0  0  0  0  0  0  0  0  0  0  0
   24.8050   -1.9300   52.7910 H   0  0  0  0  0  0  0  0  0  0  0  0
   21.6280   -3.8420   49.5210 H   0  0  0  0  0  0  0  0  0  0  0  0
   26.1420   -0.4410   46.3030 H   0  0  0  0  0  0  0  0  0  0  0  0
  1  2  1  0  0  0  0
  1  3  1  0  0  0  0
  3  4  1  0  0  0  0
  3  5  1  0  0  0  0
  5  6  1  0  0  0  0
  5  7  1  0  0  0  0
  5  8  1  0  0  0  0
  8  9  4  0  0  0  0
  9 10  1  0  0  0  0
  9 11  4  0  0  0  0
 11 12  1  0  0  0  0
 11 13  4  0  0  0  0
 13 14  1  0  0  0  0
 13 15  4  0  0  0  0
 15 16  1  0  0  0  0
  8 17  4  0  0  0  0
 15 17  4  0  0  0  0
 17 18  1  0  0  0  0
  3 19  1  0  0  0  0
 19 20  2  0  0  0  0
 19 21  4  0  0  0  0
 21 22  1  0  0  0  0
 21 23  1  0  0  0  0
 23 24  1  0  0  0  0
 23 25  1  0  0  0  0
 25 26  1  0  0  0  0
 25 27  1  0  0  0  0
 25 28  1  0  0  0  0
 28 29  2  0  0  0  0
 28 30  4  0  0  0  0
 23 31  1  0  0  0  0
 31 32  2  0  0  0  0
 33 34  1  0  0  0  0
 33 35  1  0  0  0  0
 35 36  1  0  0  0  0
 35 37  1  0  0  0  0
 37 38  1  0  0  0  0
 37 39  1  0  0  0  0
 37 40  1  0  0  0  0
 40 41  4  0  0  0  0
 41 42  1  0  0  0  0
 41 43  4  0  0  0  0
 43 44  1  0  0  0  0
 43 45  4  0  0  0  0
 45 46  1  0  0  0  0
 45 47  4  0  0  0  0
 47 48  1  0  0  0  0
 40 49  4  0  0  0  0
 47 49  4  0  0  0  0
 49 50  1  0  0  0  0
 35 51  1  0  0  0  0
 51 52  2  0  0  0  0
 53 54  1  0  0  0  0
 53 55  1  0  0  0  0
 55 56  1  0  0  0  0
 55 57  1  0  0  0  0
 57 58  1  0  0  0  0
 57 59  1  0  0  0  0
 57 60  1  0  0  0  0
 60 61  1  0  0  0  0
 60 62  1  0  0  0  0
 60 63  1  0  0  0  0
 63 64  4  0  0  0  0
 63 65  4  0  0  0  0
 55 66  1  0  0  0  0
 66 67  2  0  0  0  0
 66 68  4  0  0  0  0
 68 69  1  0  0  0  0
 68 70  1  0  0  0  0
 70 71  1  0  0  0  0
 70 72  1  0  0  0  0
 72 73  1  0  0  0  0
 72 74  1  0  0  0  0
 74 75  1  0  0  0  0
 74 76  1  0  0  0  0
 74 77  1  0  0  0  0
 72 78  1  0  0  0  0
 78 79  1  0  0  0  0
 78 80  1  0  0  0  0
 78 81  1  0  0  0  0
 70 82  1  0  0  0  0
 82 83  2  0  0  0  0
 84 85  1  0  0  0  0
 84 86  1  0  0  0  0
 86 87  1  0  0  0  0
 86 88  1  0  0  0  0
 88 89  1  0  0  0  0
 88 90  1  0  0  0  0
 88 91  1  0  0  0  0
 91 92  4  0  0  0  0
 92 93  1  0  0  0  0
 92 94  4  0  0  0  0
 94 95  1  0  0  0  0
 94 96  4  0  0  0  0
 96 97  1  0  0  0  0
 97 98  1  0  0  0  0
 96 99  4  0  0  0  0
 99100  1  0  0  0  0
 91101  4  0  0  0  0
 99101  4  0  0  0  0
101102  1  0  0  0  0
 86103  1  0  0  0  0
103104  2  0  0  0  0
105106  1  0  0  0  0
105107  1  0  0  0  0
107108  1  0  0  0  0
107109  1  0  0  0  0
109110  1  0  0  0  0
109111  1  0  0  0  0
109112  1  0  0  0  0
112113  4  0  0  0  0
113114  2  0  0  0  0
114115  1  0  0  0  0
114116  4  0  0  0  0
116117  1  0  0  0  0
112118  2  0  0  0  0
116118  4  0  0  0  0
118119  1  0  0  0  0
107120  1  0  0  0  0
120121  2  0  0  0  0
122123  1  0  0  0  0
122124  1  0  0  0  0
124125  1  0  0  0  0
124126  1  0  0  0  0
126127  1  0  0  0  0
126128  1  0  0  0  0
128129  1  0  0  0  0
128130  1  0  0  0  0
128131  1  0  0  0  0
126132  1  0  0  0  0
132133  1  0  0  0  0
132134  1  0  0  0  0
132135  1  0  0  0  0
135136  1  0  0  0  0
135137  1  0  0  0  0
135138  1  0  0  0  0
124139  1  0  0  0  0
139140  2  0  0  0  0
139141  4  0  0  0  0
141142  1  0  0  0  0
141143  1  0  0  0  0
143144  1  0  0  0  0
143145  1  0  0  0  0
145146  1  0  0  0  0
145147  1  0  0  0  0
147148  1  0  0  0  0
147149  1  0  0  0  0
147150  1  0  0  0  0
145151  1  0  0  0  0
151152  1  0  0  0  0
151153  1  0  0  0  0
151154  1  0  0  0  0
154155  1  0  0  0  0
154156  1  0  0  0  0
154157  1  0  0  0  0
143158  1  0  0  0  0
158159  2  0  0  0  0
  1160  1  0  0  0  0
 31161  1  0  0  0  0
 33162  1  0  0  0  0
 51163  1  0  0  0  0
 53164  1  0  0  0  0
 82165  1  0  0  0  0
 84166  1  0  0  0  0
103167  1  0  0  0  0
105168  1  0  0  0  0
120169  1  0  0  0  0
122170  1  0  0  0  0
158171  1  0  0  0  0
M  CHG  1   1  -2
M  END
