 xtb: 6.7.1 (edcfbbe)
          01052609073D

 59 61  0     0  0            999 V2000
   26.6300    7.5000   54.8300 C   0  0  0  0  0  0  0  0  0  0  0  0
   25.9800    8.4400   55.6100 N   0  0  0  0  0  0  0  0  0  0  0  0
   26.4400    9.3900   56.5400 C   0  0  0  0  0  0  0  0  0  0  0  0
   25.0700   11.4200   59.3500 C   0  0  0  0  0  0  0  0  0  0  0  0
   27.8700    9.7900   56.8100 C   0  0  0  0  0  0  0  0  0  0  0  0
   28.2600   10.8500   55.8000 C   0  0  0  0  0  0  0  0  0  0  0  0
   28.9800   10.6300   54.6300 C   0  0  0  0  0  0  0  0  0  0  0  0
   29.3900   11.6600   53.7600 C   0  0  0  0  0  0  0  0  0  0  0  0
   29.0800   12.9800   54.1000 C   0  0  0  0  0  0  0  0  0  0  0  0
   28.2500   13.2200   55.2000 C   0  0  0  0  0  0  0  0  0  0  0  0
   27.9300   12.1800   56.0800 C   0  0  0  0  0  0  0  0  0  0  0  0
   25.9100   10.8700   58.3300 O   0  0  0  0  0  0  0  0  0  0  0  0
   24.2600    9.5500   57.4500 O   0  0  0  0  0  0  0  0  0  0  0  0
   25.4100    9.9400   57.4600 C   0  0  0  0  0  0  0  0  0  0  0  0
   25.9800   12.2100   60.3000 C   0  0  0  0  0  0  0  0  0  0  0  0
   24.6800    5.0200   54.5500 C   0  0  0  0  0  0  0  0  0  0  0  0
   27.7400    7.1800   55.1900 O   0  0  0  0  0  0  0  0  0  0  0  0
   23.2800    5.6200   54.3100 C   0  0  0  0  0  0  0  0  0  0  0  0
   23.2700    7.4600   54.2500 S   0  0  0  0  0  0  0  0  0  0  0  0
   24.7200    7.6500   53.1300 C   0  0  0  0  0  0  0  0  0  0  0  0
   25.9800    6.8900   53.5900 C   0  0  0  0  0  0  0  0  0  0  0  0
   25.7000    5.4500   53.5900 N   0  0  0  0  0  0  0  0  0  0  0  0
   26.9600    4.3400   53.3000 S   0  0  0  0  0  0  0  0  0  0  0  0
   26.0600    2.9200   52.7000 C   0  0  0  0  0  0  0  0  0  0  0  0
   25.1800    3.0200   51.6200 C   0  0  0  0  0  0  0  0  0  0  0  0
   24.6200    1.8800   51.0400 C   0  0  0  0  0  0  0  0  0  0  0  0
   24.8100    0.6500   51.6700 C   0  0  0  0  0  0  0  0  0  0  0  0
   25.7500    0.5100   52.6900 C   0  0  0  0  0  0  0  0  0  0  0  0
   26.3000    1.6600   53.2600 C   0  0  0  0  0  0  0  0  0  0  0  0
   27.6200    3.9900   54.5600 O   0  0  0  0  0  0  0  0  0  0  0  0
   27.7300    4.9700   52.2200 O   0  0  0  0  0  0  0  0  0  0  0  0
   24.1400   -0.5400   51.0100 C   0  0  0  0  0  0  0  0  0  0  0  0
   24.9800    8.4500   55.5100 H   0  0  0  0  0  0  0  0  0  0  0  0
   24.3100   12.1100   58.9700 H   0  0  0  0  0  0  0  0  0  0  0  0
   24.7600   10.5500   59.9300 H   0  0  0  0  0  0  0  0  0  0  0  0
   28.0800    9.9300   57.8700 H   0  0  0  0  0  0  0  0  0  0  0  0
   28.4900    8.9000   56.6600 H   0  0  0  0  0  0  0  0  0  0  0  0
   29.1600    9.5900   54.4000 H   0  0  0  0  0  0  0  0  0  0  0  0
   30.0400   11.4500   52.9100 H   0  0  0  0  0  0  0  0  0  0  0  0
   29.3600   13.7200   53.3600 H   0  0  0  0  0  0  0  0  0  0  0  0
   27.9000   14.2300   55.4000 H   0  0  0  0  0  0  0  0  0  0  0  0
   27.2300   12.3500   56.9000 H   0  0  0  0  0  0  0  0  0  0  0  0
   25.4000   12.4600   61.2000 H   0  0  0  0  0  0  0  0  0  0  0  0
   26.3700   13.1500   59.8800 H   0  0  0  0  0  0  0  0  0  0  0  0
   26.8200   11.6100   60.6400 H   0  0  0  0  0  0  0  0  0  0  0  0
   25.0300    5.2400   55.5700 H   0  0  0  0  0  0  0  0  0  0  0  0
   24.4900    3.9400   54.4800 H   0  0  0  0  0  0  0  0  0  0  0  0
   22.8300    5.2900   53.3600 H   0  0  0  0  0  0  0  0  0  0  0  0
   22.5200    5.2800   55.0200 H   0  0  0  0  0  0  0  0  0  0  0  0
   24.3500    7.2800   52.1700 H   0  0  0  0  0  0  0  0  0  0  0  0
   24.9300    8.7100   52.9600 H   0  0  0  0  0  0  0  0  0  0  0  0
   26.7000    7.1200   52.7900 H   0  0  0  0  0  0  0  0  0  0  0  0
   25.0200    4.0000   51.1700 H   0  0  0  0  0  0  0  0  0  0  0  0
   23.9800    1.9900   50.1700 H   0  0  0  0  0  0  0  0  0  0  0  0
   26.0300   -0.4900   53.0200 H   0  0  0  0  0  0  0  0  0  0  0  0
   26.8800    1.5900   54.1800 H   0  0  0  0  0  0  0  0  0  0  0  0
   24.7400   -1.1700   50.3500 H   0  0  0  0  0  0  0  0  0  0  0  0
   23.3000   -0.2600   50.3700 H   0  0  0  0  0  0  0  0  0  0  0  0
   23.7500   -1.1500   51.8400 H   0  0  0  0  0  0  0  0  0  0  0  0
  1  2  1  0  0  0  0
  2  3  4  0  0  0  0
  3  5  1  0  0  0  0
  5  6  1  0  0  0  0
  6  7  4  0  0  0  0
  7  8  4  0  0  0  0
  8  9  4  0  0  0  0
  9 10  4  0  0  0  0
  6 11  4  0  0  0  0
 10 11  4  0  0  0  0
  4 12  1  0  0  0  0
  3 14  1  0  0  0  0
 12 14  1  0  0  0  0
 13 14  2  0  0  0  0
  4 15  1  0  0  0  0
  1 17  2  0  0  0  0
 16 18  1  0  0  0  0
 18 19  1  0  0  0  0
 19 20  1  0  0  0  0
  1 21  1  0  0  0  0
 20 21  1  0  0  0  0
 16 22  1  0  0  0  0
 21 22  1  0  0  0  0
 22 23  1  0  0  0  0
 23 24  1  0  0  0  0
 24 25  4  0  0  0  0
 25 26  4  0  0  0  0
 26 27  4  0  0  0  0
 27 28  4  0  0  0  0
 24 29  4  0  0  0  0
 28 29  4  0  0  0  0
 23 30  2  0  0  0  0
 23 31  2  0  0  0  0
 27 32  1  0  0  0  0
  2 33  1  0  0  0  0
  4 34  1  0  0  0  0
  4 35  1  0  0  0  0
  5 36  1  0  0  0  0
  5 37  1  0  0  0  0
  7 38  1  0  0  0  0
  8 39  1  0  0  0  0
  9 40  1  0  0  0  0
 10 41  1  0  0  0  0
 11 42  1  0  0  0  0
 15 43  1  0  0  0  0
 15 44  1  0  0  0  0
 15 45  1  0  0  0  0
 16 46  1  0  0  0  0
 16 47  1  0  0  0  0
 18 48  1  0  0  0  0
 18 49  1  0  0  0  0
 20 50  1  0  0  0  0
 20 51  1  0  0  0  0
 21 52  1  0  0  0  0
 25 53  1  0  0  0  0
 26 54  1  0  0  0  0
 28 55  1  0  0  0  0
 29 56  1  0  0  0  0
 32 57  1  0  0  0  0
 32 58  1  0  0  0  0
 32 59  1  0  0  0  0
M  CHG  1   1   1
M  END
