 xtb: 6.7.1 (edcfbbe)
          01052609063D

 59 61  0     0  0            999 V2000
   38.5500   22.9600   37.2300 C   0  0  0  0  0  0  0  0  0  0  0  0
   38.5700   23.6100   38.4400 N   0  0  0  0  0  0  0  0  0  0  0  0
   39.4600   24.5500   38.9900 C   0  0  0  0  0  0  0  0  0  0  0  0
   39.6100   26.0600   42.3900 C   0  0  0  0  0  0  0  0  0  0  0  0
   40.4200   25.3900   38.1900 C   0  0  0  0  0  0  0  0  0  0  0  0
   39.8400   26.6500   37.5800 C   0  0  0  0  0  0  0  0  0  0  0  0
   39.9800   26.8700   36.2100 C   0  0  0  0  0  0  0  0  0  0  0  0
   39.5600   28.0500   35.5800 C   0  0  0  0  0  0  0  0  0  0  0  0
   38.9100   29.0100   36.3600 C   0  0  0  0  0  0  0  0  0  0  0  0
   38.8000   28.8800   37.7500 C   0  0  0  0  0  0  0  0  0  0  0  0
   39.2500   27.6900   38.3200 C   0  0  0  0  0  0  0  0  0  0  0  0
   39.9500   25.7100   41.0400 O   0  0  0  0  0  0  0  0  0  0  0  0
   38.0400   24.4800   40.8700 O   0  0  0  0  0  0  0  0  0  0  0  0
   39.0800   24.9000   40.3900 C   0  0  0  0  0  0  0  0  0  0  0  0
   40.5500   27.1900   42.8100 C   0  0  0  0  0  0  0  0  0  0  0  0
   37.8000   20.0300   37.9600 C   0  0  0  0  0  0  0  0  0  0  0  0
   39.5200   22.9500   36.4800 O   0  0  0  0  0  0  0  0  0  0  0  0
   36.7500   20.0800   39.0900 C   0  0  0  0  0  0  0  0  0  0  0  0
   36.3600   21.8100   39.5900 S   0  0  0  0  0  0  0  0  0  0  0  0
   36.1300   22.5300   37.9100 C   0  0  0  0  0  0  0  0  0  0  0  0
   37.2600   22.2100   36.9200 C   0  0  0  0  0  0  0  0  0  0  0  0
   37.4300   20.7600   36.7500 N   0  0  0  0  0  0  0  0  0  0  0  0
   38.2300   20.2300   35.3400 S   0  0  0  0  0  0  0  0  0  0  0  0
   37.3100   18.7200   35.0300 C   0  0  0  0  0  0  0  0  0  0  0  0
   36.1300   18.6900   34.2800 C   0  0  0  0  0  0  0  0  0  0  0  0
   35.4700   17.4700   34.1900 C   0  0  0  0  0  0  0  0  0  0  0  0
   35.9200   16.3400   34.8800 C   0  0  0  0  0  0  0  0  0  0  0  0
   37.1500   16.3700   35.5500 C   0  0  0  0  0  0  0  0  0  0  0  0
   37.8400   17.5900   35.6600 C   0  0  0  0  0  0  0  0  0  0  0  0
   39.6000   20.0100   35.7900 O   0  0  0  0  0  0  0  0  0  0  0  0
   37.8300   21.1700   34.2900 O   0  0  0  0  0  0  0  0  0  0  0  0
   35.2300   15.0000   34.6900 C   0  0  0  0  0  0  0  0  0  0  0  0
   37.7900   23.4600   39.0700 H   0  0  0  0  0  0  0  0  0  0  0  0
   38.5400   26.3100   42.4200 H   0  0  0  0  0  0  0  0  0  0  0  0
   39.8100   25.2100   43.0600 H   0  0  0  0  0  0  0  0  0  0  0  0
   41.2300   25.8300   38.7800 H   0  0  0  0  0  0  0  0  0  0  0  0
   40.9000   24.8400   37.3800 H   0  0  0  0  0  0  0  0  0  0  0  0
   40.4300   26.0700   35.6200 H   0  0  0  0  0  0  0  0  0  0  0  0
   39.7700   28.2100   34.5300 H   0  0  0  0  0  0  0  0  0  0  0  0
   38.6000   29.8900   35.8000 H   0  0  0  0  0  0  0  0  0  0  0  0
   38.3500   29.7100   38.2900 H   0  0  0  0  0  0  0  0  0  0  0  0
   39.1100   27.4900   39.3800 H   0  0  0  0  0  0  0  0  0  0  0  0
   41.5900   26.9100   42.6000 H   0  0  0  0  0  0  0  0  0  0  0  0
   40.4200   27.3400   43.8900 H   0  0  0  0  0  0  0  0  0  0  0  0
   40.4700   28.0500   42.1500 H   0  0  0  0  0  0  0  0  0  0  0  0
   38.7500   20.4200   38.3600 H   0  0  0  0  0  0  0  0  0  0  0  0
   37.9800   18.9700   37.7300 H   0  0  0  0  0  0  0  0  0  0  0  0
   35.8200   19.5300   38.9100 H   0  0  0  0  0  0  0  0  0  0  0  0
   37.2500   19.6400   39.9700 H   0  0  0  0  0  0  0  0  0  0  0  0
   35.2300   22.1900   37.3800 H   0  0  0  0  0  0  0  0  0  0  0  0
   36.1300   23.6200   38.0600 H   0  0  0  0  0  0  0  0  0  0  0  0
   37.0400   22.6400   35.9300 H   0  0  0  0  0  0  0  0  0  0  0  0
   35.7600   19.6000   33.8000 H   0  0  0  0  0  0  0  0  0  0  0  0
   34.5200   17.4400   33.6600 H   0  0  0  0  0  0  0  0  0  0  0  0
   37.4500   15.5100   36.1400 H   0  0  0  0  0  0  0  0  0  0  0  0
   38.7600   17.5100   36.2300 H   0  0  0  0  0  0  0  0  0  0  0  0
   35.7700   14.4300   33.9200 H   0  0  0  0  0  0  0  0  0  0  0  0
   34.1800   15.0600   34.4000 H   0  0  0  0  0  0  0  0  0  0  0  0
   35.3200   14.4300   35.6200 H   0  0  0  0  0  0  0  0  0  0  0  0
  1  2  1  0  0  0  0
  2  3  4  0  0  0  0
  3  5  1  0  0  0  0
  5  6  1  0  0  0  0
  6  7  4  0  0  0  0
  7  8  4  0  0  0  0
  8  9  4  0  0  0  0
  9 10  4  0  0  0  0
  6 11  4  0  0  0  0
 10 11  4  0  0  0  0
  4 12  1  0  0  0  0
  3 14  1  0  0  0  0
 12 14  1  0  0  0  0
 13 14  2  0  0  0  0
  4 15  1  0  0  0  0
  1 17  2  0  0  0  0
 16 18  1  0  0  0  0
 18 19  1  0  0  0  0
 19 20  1  0  0  0  0
  1 21  1  0  0  0  0
 20 21  1  0  0  0  0
 16 22  1  0  0  0  0
 21 22  1  0  0  0  0
 22 23  1  0  0  0  0
 23 24  1  0  0  0  0
 24 25  4  0  0  0  0
 25 26  4  0  0  0  0
 26 27  4  0  0  0  0
 27 28  4  0  0  0  0
 24 29  4  0  0  0  0
 28 29  4  0  0  0  0
 23 30  2  0  0  0  0
 23 31  2  0  0  0  0
 27 32  1  0  0  0  0
  2 33  1  0  0  0  0
  4 34  1  0  0  0  0
  4 35  1  0  0  0  0
  5 36  1  0  0  0  0
  5 37  1  0  0  0  0
  7 38  1  0  0  0  0
  8 39  1  0  0  0  0
  9 40  1  0  0  0  0
 10 41  1  0  0  0  0
 11 42  1  0  0  0  0
 15 43  1  0  0  0  0
 15 44  1  0  0  0  0
 15 45  1  0  0  0  0
 16 46  1  0  0  0  0
 16 47  1  0  0  0  0
 18 48  1  0  0  0  0
 18 49  1  0  0  0  0
 20 50  1  0  0  0  0
 20 51  1  0  0  0  0
 21 52  1  0  0  0  0
 25 53  1  0  0  0  0
 26 54  1  0  0  0  0
 28 55  1  0  0  0  0
 29 56  1  0  0  0  0
 32 57  1  0  0  0  0
 32 58  1  0  0  0  0
 32 59  1  0  0  0  0
M  CHG  1   1   1
M  END
