 xtb: 6.7.1 (edcfbbe)
          01052609073D

 59 61  0     0  0            999 V2000
   22.3900    6.2500   53.1600 C   0  0  0  0  0  0  0  0  0  0  0  0
   22.3600    6.8100   54.4200 N   0  0  0  0  0  0  0  0  0  0  0  0
   23.3500    6.9300   55.4000 C   0  0  0  0  0  0  0  0  0  0  0  0
   23.1400    7.6100   59.0100 C   0  0  0  0  0  0  0  0  0  0  0  0
   24.8000    6.7000   55.0100 C   0  0  0  0  0  0  0  0  0  0  0  0
   25.3600    7.6800   54.0000 C   0  0  0  0  0  0  0  0  0  0  0  0
   25.8000    7.1600   52.7800 C   0  0  0  0  0  0  0  0  0  0  0  0
   26.1400    8.0500   51.7500 C   0  0  0  0  0  0  0  0  0  0  0  0
   26.1400    9.4400   51.9200 C   0  0  0  0  0  0  0  0  0  0  0  0
   25.6500    9.9100   53.1400 C   0  0  0  0  0  0  0  0  0  0  0  0
   25.2800    9.0600   54.1900 C   0  0  0  0  0  0  0  0  0  0  0  0
   23.5500    7.1200   57.7400 O   0  0  0  0  0  0  0  0  0  0  0  0
   21.4600    7.2600   56.7600 O   0  0  0  0  0  0  0  0  0  0  0  0
   22.6700    7.1100   56.7000 C   0  0  0  0  0  0  0  0  0  0  0  0
   22.5000    9.0100   58.9800 C   0  0  0  0  0  0  0  0  0  0  0  0
   19.7300    4.7800   52.4900 C   0  0  0  0  0  0  0  0  0  0  0  0
   23.2600    5.4700   52.8100 O   0  0  0  0  0  0  0  0  0  0  0  0
   18.5700    5.6100   53.0900 C   0  0  0  0  0  0  0  0  0  0  0  0
   19.2100    6.9700   54.1400 S   0  0  0  0  0  0  0  0  0  0  0  0
   20.3100    7.6900   52.8400 C   0  0  0  0  0  0  0  0  0  0  0  0
   21.2600    6.6500   52.2200 C   0  0  0  0  0  0  0  0  0  0  0  0
   20.5200    5.5700   51.5500 N   0  0  0  0  0  0  0  0  0  0  0  0
   21.3600    4.5500   50.4800 S   0  0  0  0  0  0  0  0  0  0  0  0
   20.1300    3.9500   49.3200 C   0  0  0  0  0  0  0  0  0  0  0  0
   19.7100    4.8200   48.3100 C   0  0  0  0  0  0  0  0  0  0  0  0
   18.7400    4.4100   47.3900 C   0  0  0  0  0  0  0  0  0  0  0  0
   18.2900    3.0900   47.3900 C   0  0  0  0  0  0  0  0  0  0  0  0
   18.6400    2.2400   48.4400 C   0  0  0  0  0  0  0  0  0  0  0  0
   19.5600    2.6900   49.3900 C   0  0  0  0  0  0  0  0  0  0  0  0
   21.8600    3.4200   51.2700 O   0  0  0  0  0  0  0  0  0  0  0  0
   22.3400    5.3700   49.7600 O   0  0  0  0  0  0  0  0  0  0  0  0
   17.2000    2.7500   46.4000 C   0  0  0  0  0  0  0  0  0  0  0  0
   21.4200    7.0500   54.7200 H   0  0  0  0  0  0  0  0  0  0  0  0
   22.5200    6.8200   59.4500 H   0  0  0  0  0  0  0  0  0  0  0  0
   24.0200    7.7600   59.6600 H   0  0  0  0  0  0  0  0  0  0  0  0
   25.4600    6.8300   55.8700 H   0  0  0  0  0  0  0  0  0  0  0  0
   25.0700    5.7400   54.5700 H   0  0  0  0  0  0  0  0  0  0  0  0
   25.9200    6.0800   52.6600 H   0  0  0  0  0  0  0  0  0  0  0  0
   26.4700    7.6300   50.8100 H   0  0  0  0  0  0  0  0  0  0  0  0
   26.4700   10.1100   51.1400 H   0  0  0  0  0  0  0  0  0  0  0  0
   25.5700   10.9800   53.3300 H   0  0  0  0  0  0  0  0  0  0  0  0
   24.9400    9.3300   55.1900 H   0  0  0  0  0  0  0  0  0  0  0  0
   22.5800    9.5400   59.9400 H   0  0  0  0  0  0  0  0  0  0  0  0
   21.4500    8.9300   58.7100 H   0  0  0  0  0  0  0  0  0  0  0  0
   23.0900    9.6500   58.3100 H   0  0  0  0  0  0  0  0  0  0  0  0
   20.3500    4.3600   53.2900 H   0  0  0  0  0  0  0  0  0  0  0  0
   19.2700    3.8800   52.0500 H   0  0  0  0  0  0  0  0  0  0  0  0
   17.9600    6.0000   52.2600 H   0  0  0  0  0  0  0  0  0  0  0  0
   18.0700    4.9800   53.8300 H   0  0  0  0  0  0  0  0  0  0  0  0
   19.7300    8.1900   52.0600 H   0  0  0  0  0  0  0  0  0  0  0  0
   20.8800    8.4300   53.4200 H   0  0  0  0  0  0  0  0  0  0  0  0
   21.7500    7.2800   51.4700 H   0  0  0  0  0  0  0  0  0  0  0  0
   20.1600    5.8000   48.1600 H   0  0  0  0  0  0  0  0  0  0  0  0
   18.3600    5.1300   46.6600 H   0  0  0  0  0  0  0  0  0  0  0  0
   18.1000    1.3100   48.6400 H   0  0  0  0  0  0  0  0  0  0  0  0
   19.8900    1.9200   50.0800 H   0  0  0  0  0  0  0  0  0  0  0  0
   17.5700    2.2300   45.5100 H   0  0  0  0  0  0  0  0  0  0  0  0
   16.5600    3.6100   46.1400 H   0  0  0  0  0  0  0  0  0  0  0  0
   16.6100    2.0100   46.9400 H   0  0  0  0  0  0  0  0  0  0  0  0
  1  2  1  0  0  0  0
  2  3  4  0  0  0  0
  3  5  1  0  0  0  0
  5  6  1  0  0  0  0
  6  7  4  0  0  0  0
  7  8  4  0  0  0  0
  8  9  4  0  0  0  0
  9 10  4  0  0  0  0
  6 11  4  0  0  0  0
 10 11  4  0  0  0  0
  4 12  1  0  0  0  0
  3 14  1  0  0  0  0
 12 14  1  0  0  0  0
 13 14  2  0  0  0  0
  4 15  1  0  0  0  0
  1 17  2  0  0  0  0
 16 18  1  0  0  0  0
 18 19  1  0  0  0  0
 19 20  1  0  0  0  0
  1 21  1  0  0  0  0
 20 21  1  0  0  0  0
 16 22  1  0  0  0  0
 21 22  1  0  0  0  0
 22 23  1  0  0  0  0
 23 24  1  0  0  0  0
 24 25  4  0  0  0  0
 25 26  4  0  0  0  0
 26 27  4  0  0  0  0
 27 28  4  0  0  0  0
 24 29  4  0  0  0  0
 28 29  4  0  0  0  0
 23 30  2  0  0  0  0
 23 31  2  0  0  0  0
 27 32  1  0  0  0  0
  2 33  1  0  0  0  0
  4 34  1  0  0  0  0
  4 35  1  0  0  0  0
  5 36  1  0  0  0  0
  5 37  1  0  0  0  0
  7 38  1  0  0  0  0
  8 39  1  0  0  0  0
  9 40  1  0  0  0  0
 10 41  1  0  0  0  0
 11 42  1  0  0  0  0
 15 43  1  0  0  0  0
 15 44  1  0  0  0  0
 15 45  1  0  0  0  0
 16 46  1  0  0  0  0
 16 47  1  0  0  0  0
 18 48  1  0  0  0  0
 18 49  1  0  0  0  0
 20 50  1  0  0  0  0
 20 51  1  0  0  0  0
 21 52  1  0  0  0  0
 25 53  1  0  0  0  0
 26 54  1  0  0  0  0
 28 55  1  0  0  0  0
 29 56  1  0  0  0  0
 32 57  1  0  0  0  0
 32 58  1  0  0  0  0
 32 59  1  0  0  0  0
M  CHG  1   1   1
M  END
