 xtb: 6.7.1 (edcfbbe)
          01052609063D

 59 61  0     0  0            999 V2000
   26.2700   14.2000   52.4600 C   0  0  0  0  0  0  0  0  0  0  0  0
   25.9300   15.2200   53.3200 N   0  0  0  0  0  0  0  0  0  0  0  0
   26.6400   16.0100   54.2400 C   0  0  0  0  0  0  0  0  0  0  0  0
   26.0100   19.0100   56.2900 C   0  0  0  0  0  0  0  0  0  0  0  0
   28.1100   15.8400   54.5000 C   0  0  0  0  0  0  0  0  0  0  0  0
   29.0200   16.5100   53.4800 C   0  0  0  0  0  0  0  0  0  0  0  0
   29.8300   15.7900   52.5900 C   0  0  0  0  0  0  0  0  0  0  0  0
   30.6400   16.5000   51.7000 C   0  0  0  0  0  0  0  0  0  0  0  0
   30.5600   17.8900   51.5900 C   0  0  0  0  0  0  0  0  0  0  0  0
   29.6800   18.6000   52.4200 C   0  0  0  0  0  0  0  0  0  0  0  0
   28.9600   17.9000   53.3900 C   0  0  0  0  0  0  0  0  0  0  0  0
   26.5900   17.8100   55.7700 O   0  0  0  0  0  0  0  0  0  0  0  0
   24.6400   17.1000   54.7000 O   0  0  0  0  0  0  0  0  0  0  0  0
   25.8300   17.0200   54.9600 C   0  0  0  0  0  0  0  0  0  0  0  0
   26.1700   20.2100   55.3400 C   0  0  0  0  0  0  0  0  0  0  0  0
   23.9900   12.4100   53.5300 C   0  0  0  0  0  0  0  0  0  0  0  0
   27.4100   13.7700   52.4200 O   0  0  0  0  0  0  0  0  0  0  0  0
   22.6500   13.1500   53.4700 C   0  0  0  0  0  0  0  0  0  0  0  0
   22.9400   14.8400   52.8000 S   0  0  0  0  0  0  0  0  0  0  0  0
   23.9600   14.4300   51.3300 C   0  0  0  0  0  0  0  0  0  0  0  0
   25.1600   13.5200   51.6500 C   0  0  0  0  0  0  0  0  0  0  0  0
   24.6800   12.2600   52.2400 N   0  0  0  0  0  0  0  0  0  0  0  0
   25.6800   10.8900   52.1600 S   0  0  0  0  0  0  0  0  0  0  0  0
   24.4700    9.5800   52.2300 C   0  0  0  0  0  0  0  0  0  0  0  0
   23.5800    9.3900   51.1700 C   0  0  0  0  0  0  0  0  0  0  0  0
   22.7500    8.2600   51.1800 C   0  0  0  0  0  0  0  0  0  0  0  0
   22.7200    7.4100   52.2900 C   0  0  0  0  0  0  0  0  0  0  0  0
   23.5300    7.7300   53.3800 C   0  0  0  0  0  0  0  0  0  0  0  0
   24.4800    8.7600   53.3700 C   0  0  0  0  0  0  0  0  0  0  0  0
   26.4800   10.9100   53.3900 O   0  0  0  0  0  0  0  0  0  0  0  0
   26.2900   10.8800   50.8200 O   0  0  0  0  0  0  0  0  0  0  0  0
   21.6100    6.3900   52.4200 C   0  0  0  0  0  0  0  0  0  0  0  0
   24.9300   15.3900   53.3800 H   0  0  0  0  0  0  0  0  0  0  0  0
   24.9200   18.9500   56.4000 H   0  0  0  0  0  0  0  0  0  0  0  0
   26.5500   19.1800   57.2300 H   0  0  0  0  0  0  0  0  0  0  0  0
   28.4000   16.2000   55.5000 H   0  0  0  0  0  0  0  0  0  0  0  0
   28.5200   14.8300   54.6100 H   0  0  0  0  0  0  0  0  0  0  0  0
   29.8900   14.7100   52.6700 H   0  0  0  0  0  0  0  0  0  0  0  0
   31.2800   15.9700   51.0000 H   0  0  0  0  0  0  0  0  0  0  0  0
   31.2800   18.4400   51.0100 H   0  0  0  0  0  0  0  0  0  0  0  0
   29.5300   19.6700   52.4900 H   0  0  0  0  0  0  0  0  0  0  0  0
   28.3000   18.4400   54.0700 H   0  0  0  0  0  0  0  0  0  0  0  0
   25.3000   20.2800   54.6700 H   0  0  0  0  0  0  0  0  0  0  0  0
   27.1100   20.3300   54.7800 H   0  0  0  0  0  0  0  0  0  0  0  0
   26.0900   21.0400   56.0400 H   0  0  0  0  0  0  0  0  0  0  0  0
   24.6600   12.8200   54.3000 H   0  0  0  0  0  0  0  0  0  0  0  0
   23.7200   11.3900   53.8500 H   0  0  0  0  0  0  0  0  0  0  0  0
   21.9100   12.6800   52.8000 H   0  0  0  0  0  0  0  0  0  0  0  0
   22.2500   13.3700   54.4700 H   0  0  0  0  0  0  0  0  0  0  0  0
   23.3600   13.8900   50.5800 H   0  0  0  0  0  0  0  0  0  0  0  0
   24.2800   15.3400   50.8100 H   0  0  0  0  0  0  0  0  0  0  0  0
   25.6500   13.3900   50.6800 H   0  0  0  0  0  0  0  0  0  0  0  0
   23.3900   10.1200   50.3900 H   0  0  0  0  0  0  0  0  0  0  0  0
   22.0700    8.0500   50.3600 H   0  0  0  0  0  0  0  0  0  0  0  0
   23.4700    7.0900   54.2600 H   0  0  0  0  0  0  0  0  0  0  0  0
   25.2200    8.7700   54.1600 H   0  0  0  0  0  0  0  0  0  0  0  0
   20.8500    6.4200   51.6300 H   0  0  0  0  0  0  0  0  0  0  0  0
   21.2100    6.4200   53.4400 H   0  0  0  0  0  0  0  0  0  0  0  0
   22.2600    5.5000   52.4000 H   0  0  0  0  0  0  0  0  0  0  0  0
  1  2  1  0  0  0  0
  2  3  4  0  0  0  0
  3  5  1  0  0  0  0
  5  6  1  0  0  0  0
  6  7  4  0  0  0  0
  7  8  4  0  0  0  0
  8  9  4  0  0  0  0
  9 10  4  0  0  0  0
  6 11  4  0  0  0  0
 10 11  4  0  0  0  0
  4 12  1  0  0  0  0
  3 14  1  0  0  0  0
 12 14  1  0  0  0  0
 13 14  2  0  0  0  0
  4 15  1  0  0  0  0
  1 17  2  0  0  0  0
 16 18  1  0  0  0  0
 18 19  1  0  0  0  0
 19 20  1  0  0  0  0
  1 21  1  0  0  0  0
 20 21  1  0  0  0  0
 16 22  1  0  0  0  0
 21 22  1  0  0  0  0
 22 23  1  0  0  0  0
 23 24  1  0  0  0  0
 24 25  4  0  0  0  0
 25 26  4  0  0  0  0
 26 27  4  0  0  0  0
 27 28  4  0  0  0  0
 24 29  4  0  0  0  0
 28 29  4  0  0  0  0
 23 30  2  0  0  0  0
 23 31  2  0  0  0  0
 27 32  1  0  0  0  0
  2 33  1  0  0  0  0
  4 34  1  0  0  0  0
  4 35  1  0  0  0  0
  5 36  1  0  0  0  0
  5 37  1  0  0  0  0
  7 38  1  0  0  0  0
  8 39  1  0  0  0  0
  9 40  1  0  0  0  0
 10 41  1  0  0  0  0
 11 42  1  0  0  0  0
 15 43  1  0  0  0  0
 15 44  1  0  0  0  0
 15 45  1  0  0  0  0
 16 46  1  0  0  0  0
 16 47  1  0  0  0  0
 18 48  1  0  0  0  0
 18 49  1  0  0  0  0
 20 50  1  0  0  0  0
 20 51  1  0  0  0  0
 21 52  1  0  0  0  0
 25 53  1  0  0  0  0
 26 54  1  0  0  0  0
 28 55  1  0  0  0  0
 29 56  1  0  0  0  0
 32 57  1  0  0  0  0
 32 58  1  0  0  0  0
 32 59  1  0  0  0  0
M  CHG  1   1   1
M  END
