 xtb: 6.7.1 (edcfbbe)
          01052609073D

 59 61  0     0  0            999 V2000
   32.5100   32.8000   43.5800 C   0  0  0  0  0  0  0  0  0  0  0  0
   31.4000   32.6500   44.4000 N   0  0  0  0  0  0  0  0  0  0  0  0
   30.9800   33.2300   45.6000 C   0  0  0  0  0  0  0  0  0  0  0  0
   28.6000   32.3100   48.2900 C   0  0  0  0  0  0  0  0  0  0  0  0
   31.7800   34.3000   46.3000 C   0  0  0  0  0  0  0  0  0  0  0  0
   31.5200   35.7200   45.8700 C   0  0  0  0  0  0  0  0  0  0  0  0
   30.4200   36.5100   46.2300 C   0  0  0  0  0  0  0  0  0  0  0  0
   30.2100   37.7200   45.5500 C   0  0  0  0  0  0  0  0  0  0  0  0
   31.1400   38.2000   44.6200 C   0  0  0  0  0  0  0  0  0  0  0  0
   32.3000   37.4700   44.3800 C   0  0  0  0  0  0  0  0  0  0  0  0
   32.4700   36.2100   44.9600 C   0  0  0  0  0  0  0  0  0  0  0  0
   29.5100   33.0400   47.4800 O   0  0  0  0  0  0  0  0  0  0  0  0
   29.2900   31.6200   45.6700 O   0  0  0  0  0  0  0  0  0  0  0  0
   29.8400   32.5400   46.2600 C   0  0  0  0  0  0  0  0  0  0  0  0
   29.3000   32.1600   49.6500 C   0  0  0  0  0  0  0  0  0  0  0  0
   33.7400   30.0100   43.1400 C   0  0  0  0  0  0  0  0  0  0  0  0
   33.4800   33.4600   43.9200 O   0  0  0  0  0  0  0  0  0  0  0  0
   32.4900   29.1000   43.0600 C   0  0  0  0  0  0  0  0  0  0  0  0
   30.8100   29.8400   43.1500 S   0  0  0  0  0  0  0  0  0  0  0  0
   31.2600   31.2300   42.0300 C   0  0  0  0  0  0  0  0  0  0  0  0
   32.5900   31.9500   42.3200 C   0  0  0  0  0  0  0  0  0  0  0  0
   33.7600   31.0900   42.1500 N   0  0  0  0  0  0  0  0  0  0  0  0
   35.2000   31.9100   41.7600 S   0  0  0  0  0  0  0  0  0  0  0  0
   36.2600   30.6400   41.0800 C   0  0  0  0  0  0  0  0  0  0  0  0
   35.6400   29.7100   40.2300 C   0  0  0  0  0  0  0  0  0  0  0  0
   36.4200   28.6600   39.7300 C   0  0  0  0  0  0  0  0  0  0  0  0
   37.7700   28.5300   40.0600 C   0  0  0  0  0  0  0  0  0  0  0  0
   38.2800   29.3500   41.0800 C   0  0  0  0  0  0  0  0  0  0  0  0
   37.5700   30.4700   41.5200 C   0  0  0  0  0  0  0  0  0  0  0  0
   35.8300   32.5100   42.9400 O   0  0  0  0  0  0  0  0  0  0  0  0
   34.7000   32.7400   40.6600 O   0  0  0  0  0  0  0  0  0  0  0  0
   38.6200   27.4200   39.4800 C   0  0  0  0  0  0  0  0  0  0  0  0
   30.7300   31.9500   44.1200 H   0  0  0  0  0  0  0  0  0  0  0  0
   27.7000   32.9300   48.4600 H   0  0  0  0  0  0  0  0  0  0  0  0
   28.4800   31.3000   47.8900 H   0  0  0  0  0  0  0  0  0  0  0  0
   31.7200   34.2600   47.4000 H   0  0  0  0  0  0  0  0  0  0  0  0
   32.8200   33.9500   46.1800 H   0  0  0  0  0  0  0  0  0  0  0  0
   29.6700   36.1200   46.9100 H   0  0  0  0  0  0  0  0  0  0  0  0
   29.3700   38.3500   45.8000 H   0  0  0  0  0  0  0  0  0  0  0  0
   31.0500   39.0800   43.9900 H   0  0  0  0  0  0  0  0  0  0  0  0
   32.9900   37.7100   43.5700 H   0  0  0  0  0  0  0  0  0  0  0  0
   33.2200   35.5600   44.5100 H   0  0  0  0  0  0  0  0  0  0  0  0
   30.2400   31.6000   49.5700 H   0  0  0  0  0  0  0  0  0  0  0  0
   28.7200   31.7300   50.4700 H   0  0  0  0  0  0  0  0  0  0  0  0
   29.6000   33.1800   49.8900 H   0  0  0  0  0  0  0  0  0  0  0  0
   33.7600   30.4200   44.1600 H   0  0  0  0  0  0  0  0  0  0  0  0
   34.6600   29.4200   43.0300 H   0  0  0  0  0  0  0  0  0  0  0  0
   32.5100   28.3000   42.3100 H   0  0  0  0  0  0  0  0  0  0  0  0
   32.5300   28.5200   43.9900 H   0  0  0  0  0  0  0  0  0  0  0  0
   31.2600   30.8200   41.0100 H   0  0  0  0  0  0  0  0  0  0  0  0
   30.3800   31.8900   42.0300 H   0  0  0  0  0  0  0  0  0  0  0  0
   32.6100   32.6900   41.5000 H   0  0  0  0  0  0  0  0  0  0  0  0
   34.6000   29.8400   39.9500 H   0  0  0  0  0  0  0  0  0  0  0  0
   35.9000   28.0000   39.0400 H   0  0  0  0  0  0  0  0  0  0  0  0
   39.3300   29.2800   41.3400 H   0  0  0  0  0  0  0  0  0  0  0  0
   38.1100   31.2400   42.0700 H   0  0  0  0  0  0  0  0  0  0  0  0
   39.1600   26.9600   40.3200 H   0  0  0  0  0  0  0  0  0  0  0  0
   39.3900   27.7200   38.7600 H   0  0  0  0  0  0  0  0  0  0  0  0
   37.9800   26.6200   39.0900 H   0  0  0  0  0  0  0  0  0  0  0  0
  1  2  1  0  0  0  0
  2  3  4  0  0  0  0
  3  5  1  0  0  0  0
  5  6  1  0  0  0  0
  6  7  4  0  0  0  0
  7  8  4  0  0  0  0
  8  9  4  0  0  0  0
  9 10  4  0  0  0  0
  6 11  4  0  0  0  0
 10 11  4  0  0  0  0
  4 12  1  0  0  0  0
  3 14  1  0  0  0  0
 12 14  1  0  0  0  0
 13 14  2  0  0  0  0
  4 15  1  0  0  0  0
  1 17  2  0  0  0  0
 16 18  1  0  0  0  0
 18 19  1  0  0  0  0
 19 20  1  0  0  0  0
  1 21  1  0  0  0  0
 20 21  1  0  0  0  0
 16 22  1  0  0  0  0
 21 22  1  0  0  0  0
 22 23  1  0  0  0  0
 23 24  1  0  0  0  0
 24 25  4  0  0  0  0
 25 26  4  0  0  0  0
 26 27  4  0  0  0  0
 27 28  4  0  0  0  0
 24 29  4  0  0  0  0
 28 29  4  0  0  0  0
 23 30  2  0  0  0  0
 23 31  2  0  0  0  0
 27 32  1  0  0  0  0
  2 33  1  0  0  0  0
  4 34  1  0  0  0  0
  4 35  1  0  0  0  0
  5 36  1  0  0  0  0
  5 37  1  0  0  0  0
  7 38  1  0  0  0  0
  8 39  1  0  0  0  0
  9 40  1  0  0  0  0
 10 41  1  0  0  0  0
 11 42  1  0  0  0  0
 15 43  1  0  0  0  0
 15 44  1  0  0  0  0
 15 45  1  0  0  0  0
 16 46  1  0  0  0  0
 16 47  1  0  0  0  0
 18 48  1  0  0  0  0
 18 49  1  0  0  0  0
 20 50  1  0  0  0  0
 20 51  1  0  0  0  0
 21 52  1  0  0  0  0
 25 53  1  0  0  0  0
 26 54  1  0  0  0  0
 28 55  1  0  0  0  0
 29 56  1  0  0  0  0
 32 57  1  0  0  0  0
 32 58  1  0  0  0  0
 32 59  1  0  0  0  0
M  CHG  1   1   1
M  END
