 xtb: 6.7.1 (edcfbbe)
          01052609063D

234231  0     0  0            999 V2000
   21.4300   26.0900   44.0700 N   0  0  0  0  0  0  0  0  0  0  0  0
   21.8100   25.4400   44.7400 H   0  0  0  0  0  0  0  0  0  0  0  0
   21.7600   25.9800   42.6700 C   0  0  0  0  0  0  0  0  0  0  0  0
   20.8300   26.1800   42.1400 H   0  0  0  0  0  0  0  0  0  0  0  0
   22.9100   26.9000   42.2700 C   0  0  0  0  0  0  0  0  0  0  0  0
   22.8900   27.9300   42.6500 H   0  0  0  0  0  0  0  0  0  0  0  0
   22.9400   27.0500   41.1900 H   0  0  0  0  0  0  0  0  0  0  0  0
   24.2400   26.3400   42.7100 C   0  0  0  0  0  0  0  0  0  0  0  0
   24.9800   25.5500   41.8200 C   0  0  0  0  0  0  0  0  0  0  0  0
   24.4800   25.4100   40.8800 H   0  0  0  0  0  0  0  0  0  0  0  0
   26.1900   24.9500   42.2000 C   0  0  0  0  0  0  0  0  0  0  0  0
   26.8400   24.4200   41.5300 H   0  0  0  0  0  0  0  0  0  0  0  0
   26.7100   25.2400   43.4800 C   0  0  0  0  0  0  0  0  0  0  0  0
   27.9800   24.8600   43.7900 O   0  0  0  0  0  0  0  0  0  0  0  0
   28.2600   24.1000   43.2700 H   0  0  0  0  0  0  0  0  0  0  0  0
   25.9200   25.9700   44.4000 C   0  0  0  0  0  0  0  0  0  0  0  0
   26.3000   26.1300   45.4000 H   0  0  0  0  0  0  0  0  0  0  0  0
   24.6900   26.5200   44.0200 C   0  0  0  0  0  0  0  0  0  0  0  0
   24.0200   26.9400   44.7500 H   0  0  0  0  0  0  0  0  0  0  0  0
   22.0900   24.5500   42.2700 C   0  0  0  0  0  0  0  0  0  0  0  0
   22.4400   23.7200   43.1100 O   0  0  0  0  0  0  0  0  0  0  0  0
   27.2300   18.7200   37.0800 N   0  0  0  0  0  0  0  0  0  0  0  0
   26.7200   19.5900   37.0500 H   0  0  0  0  0  0  0  0  0  0  0  0
   28.5100   18.7000   37.7500 C   0  0  0  0  0  0  0  0  0  0  0  0
   28.8500   17.6700   37.6700 H   0  0  0  0  0  0  0  0  0  0  0  0
   29.5900   19.5700   37.1100 C   0  0  0  0  0  0  0  0  0  0  0  0
   29.9200   19.2900   36.1100 H   0  0  0  0  0  0  0  0  0  0  0  0
   30.5500   19.3800   37.5800 H   0  0  0  0  0  0  0  0  0  0  0  0
   29.3400   21.0500   36.9800 C   0  0  0  0  0  0  0  0  0  0  0  0
   28.9300   21.6300   35.7700 C   0  0  0  0  0  0  0  0  0  0  0  0
   28.8800   21.0000   34.9000 H   0  0  0  0  0  0  0  0  0  0  0  0
   28.7400   23.0000   35.5800 C   0  0  0  0  0  0  0  0  0  0  0  0
   28.3700   23.3800   34.6300 H   0  0  0  0  0  0  0  0  0  0  0  0
   28.7600   23.8200   36.7100 C   0  0  0  0  0  0  0  0  0  0  0  0
   28.6500   24.8900   36.6400 H   0  0  0  0  0  0  0  0  0  0  0  0
   29.2200   23.2900   37.9200 C   0  0  0  0  0  0  0  0  0  0  0  0
   29.4400   23.9800   38.7200 H   0  0  0  0  0  0  0  0  0  0  0  0
   29.5500   21.9300   38.0500 C   0  0  0  0  0  0  0  0  0  0  0  0
   30.0300   21.6100   38.9600 H   0  0  0  0  0  0  0  0  0  0  0  0
   28.3400   19.0500   39.2300 C   0  0  0  0  0  0  0  0  0  0  0  0
   28.9400   18.3000   40.0000 O   0  0  0  0  0  0  0  0  0  0  0  0
   27.5900   20.0400   39.7000 N   0  0  0  0  0  0  0  0  0  0  0  0
   27.2300   20.7200   39.0400 H   0  0  0  0  0  0  0  0  0  0  0  0
   27.4200   20.3300   41.1100 C   0  0  0  0  0  0  0  0  0  0  0  0
   27.6100   19.4500   41.7300 H   0  0  0  0  0  0  0  0  0  0  0  0
   28.5200   21.3100   41.4800 C   0  0  0  0  0  0  0  0  0  0  0  0
   28.1300   22.3100   41.2500 H   0  0  0  0  0  0  0  0  0  0  0  0
   29.4900   21.0400   41.0600 H   0  0  0  0  0  0  0  0  0  0  0  0
   28.6700   21.3300   42.9900 C   0  0  0  0  0  0  0  0  0  0  0  0
   28.8700   22.4300   43.5500 O   0  0  0  0  0  0  0  0  0  0  0  0
   28.6800   20.2300   43.5900 O   0  0  0  0  0  0  0  0  0  0  0  0
   26.0500   20.8900   41.4800 C   0  0  0  0  0  0  0  0  0  0  0  0
   25.5200   21.7000   40.7300 O   0  0  0  0  0  0  0  0  0  0  0  0
   23.4900   18.7000   48.8600 N   0  0  0  0  0  0  0  0  0  0  0  0
   23.2200   19.5000   48.3100 H   0  0  0  0  0  0  0  0  0  0  0  0
   24.2400   18.9500   50.0800 C   0  0  0  0  0  0  0  0  0  0  0  0
   24.7100   18.0300   50.4200 H   0  0  0  0  0  0  0  0  0  0  0  0
   25.3500   19.9400   49.7700 C   0  0  0  0  0  0  0  0  0  0  0  0
   25.5900   20.5900   50.6200 H   0  0  0  0  0  0  0  0  0  0  0  0
   25.1200   20.6600   48.9900 H   0  0  0  0  0  0  0  0  0  0  0  0
   26.6400   19.2900   49.2700 C   0  0  0  0  0  0  0  0  0  0  0  0
   26.5700   18.8400   48.2800 H   0  0  0  0  0  0  0  0  0  0  0  0
   26.9200   18.4800   49.9400 H   0  0  0  0  0  0  0  0  0  0  0  0
   27.7600   20.3300   49.2100 C   0  0  0  0  0  0  0  0  0  0  0  0
   28.7100   19.8200   49.0200 H   0  0  0  0  0  0  0  0  0  0  0  0
   27.8200   20.8200   50.1800 H   0  0  0  0  0  0  0  0  0  0  0  0
   27.5800   21.3600   48.1900 N   0  0  0  0  0  0  0  0  0  0  0  0
   26.9700   22.1300   48.4200 H   0  0  0  0  0  0  0  0  0  0  0  0
   28.0300   21.2800   46.9300 C   0  0  0  0  0  0  0  0  0  0  0  0
   28.5500   20.2200   46.3000 N   0  0  0  0  0  0  0  0  0  0  0  0
   28.8300   19.4500   46.9000 H   0  0  0  0  0  0  0  0  0  0  0  0
   28.7100   20.2400   45.3100 H   0  0  0  0  0  0  0  0  0  0  0  0
   27.9700   22.4300   46.2400 N   0  0  0  0  0  0  0  0  0  0  0  0
   27.8000   23.3000   46.7300 H   0  0  0  0  0  0  0  0  0  0  0  0
   28.3500   22.4100   45.3100 H   0  0  0  0  0  0  0  0  0  0  0  0
   23.2900   19.3600   51.2000 C   0  0  0  0  0  0  0  0  0  0  0  0
   23.7300   19.7500   52.2800 O   0  0  0  0  0  0  0  0  0  0  0  0
   34.5600   38.4000   43.4000 N   0  0  0  0  0  0  0  0  0  0  0  0
   33.7000   38.9200   43.2900 H   0  0  0  0  0  0  0  0  0  0  0  0
   34.9400   37.4400   42.3800 C   0  0  0  0  0  0  0  0  0  0  0  0
   33.9700   37.4200   41.8900 H   0  0  0  0  0  0  0  0  0  0  0  0
   36.0000   38.0700   41.4900 C   0  0  0  0  0  0  0  0  0  0  0  0
   36.2400   37.3200   40.7300 H   0  0  0  0  0  0  0  0  0  0  0  0
   36.9500   38.2500   42.0000 H   0  0  0  0  0  0  0  0  0  0  0  0
   35.6900   39.4200   40.8400 C   0  0  0  0  0  0  0  0  0  0  0  0
   36.6600   39.7300   40.4700 H   0  0  0  0  0  0  0  0  0  0  0  0
   35.4300   40.1600   41.5900 H   0  0  0  0  0  0  0  0  0  0  0  0
   34.6200   39.2100   39.7800 C   0  0  0  0  0  0  0  0  0  0  0  0
   34.6800   38.3600   38.8900 O   0  0  0  0  0  0  0  0  0  0  0  0
   33.5500   40.0100   39.7800 N   0  0  0  0  0  0  0  0  0  0  0  0
   33.4700   40.6000   40.6000 H   0  0  0  0  0  0  0  0  0  0  0  0
   32.9600   40.0600   38.9600 H   0  0  0  0  0  0  0  0  0  0  0  0
   35.3000   36.0400   42.8500 C   0  0  0  0  0  0  0  0  0  0  0  0
   36.0100   35.2400   42.2500 O   0  0  0  0  0  0  0  0  0  0  0  0
   34.7100   35.7300   44.0100 N   0  0  0  0  0  0  0  0  0  0  0  0
   34.0200   36.4000   44.3300 H   0  0  0  0  0  0  0  0  0  0  0  0
   34.8400   34.4000   44.5700 C   0  0  0  0  0  0  0  0  0  0  0  0
   35.8500   34.0100   44.4600 H   0  0  0  0  0  0  0  0  0  0  0  0
   34.6300   34.4300   46.0900 C   0  0  0  0  0  0  0  0  0  0  0  0
   35.1100   35.2800   46.5800 H   0  0  0  0  0  0  0  0  0  0  0  0
   35.0300   33.5500   46.5800 H   0  0  0  0  0  0  0  0  0  0  0  0
   33.1600   34.5400   46.4900 C   0  0  0  0  0  0  0  0  0  0  0  0
   32.6100   33.6500   46.1700 H   0  0  0  0  0  0  0  0  0  0  0  0
   32.7000   35.3900   45.9800 H   0  0  0  0  0  0  0  0  0  0  0  0
   32.8700   34.6400   47.9800 C   0  0  0  0  0  0  0  0  0  0  0  0
   33.8000   34.9300   48.7600 O   0  0  0  0  0  0  0  0  0  0  0  0
   31.7000   34.6300   48.4200 O   0  0  0  0  0  0  0  0  0  0  0  0
   34.0300   33.3400   43.8600 C   0  0  0  0  0  0  0  0  0  0  0  0
   34.0500   32.1600   44.2000 O   0  0  0  0  0  0  0  0  0  0  0  0
   33.2700   33.7500   42.8400 N   0  0  0  0  0  0  0  0  0  0  0  0
   33.2600   34.7400   42.6300 H   0  0  0  0  0  0  0  0  0  0  0  0
   32.5500   32.9100   41.9000 C   0  0  0  0  0  0  0  0  0  0  0  0
   32.8000   31.8800   42.1500 H   0  0  0  0  0  0  0  0  0  0  0  0
   31.0500   33.0000   42.1500 C   0  0  0  0  0  0  0  0  0  0  0  0
   30.6300   32.2900   41.4400 H   0  0  0  0  0  0  0  0  0  0  0  0
   30.6400   32.4300   43.5000 C   0  0  0  0  0  0  0  0  0  0  0  0
   29.5900   32.1400   43.4900 H   0  0  0  0  0  0  0  0  0  0  0  0
   31.1100   31.4600   43.6600 H   0  0  0  0  0  0  0  0  0  0  0  0
   30.9300   33.1600   44.2600 H   0  0  0  0  0  0  0  0  0  0  0  0
   30.5000   34.4000   41.9000 C   0  0  0  0  0  0  0  0  0  0  0  0
   30.8300   35.1800   42.5900 H   0  0  0  0  0  0  0  0  0  0  0  0
   30.6200   34.6800   40.8500 H   0  0  0  0  0  0  0  0  0  0  0  0
   29.4200   34.4900   41.9400 H   0  0  0  0  0  0  0  0  0  0  0  0
   32.9100   33.3000   40.4700 C   0  0  0  0  0  0  0  0  0  0  0  0
   33.3500   34.4000   40.1500 O   0  0  0  0  0  0  0  0  0  0  0  0
   32.5300   32.4100   39.5500 N   0  0  0  0  0  0  0  0  0  0  0  0
   32.1100   31.5400   39.8700 H   0  0  0  0  0  0  0  0  0  0  0  0
   32.7000   32.6400   38.1300 C   0  0  0  0  0  0  0  0  0  0  0  0
   33.7700   32.8100   38.0100 H   0  0  0  0  0  0  0  0  0  0  0  0
   32.3500   31.3700   37.3500 C   0  0  0  0  0  0  0  0  0  0  0  0
   32.5100   31.5600   36.2900 H   0  0  0  0  0  0  0  0  0  0  0  0
   33.2500   30.2000   37.7200 C   0  0  0  0  0  0  0  0  0  0  0  0
   34.3100   30.4400   37.7600 H   0  0  0  0  0  0  0  0  0  0  0  0
   33.1300   29.8900   38.7600 H   0  0  0  0  0  0  0  0  0  0  0  0
   33.1100   29.3100   37.1100 H   0  0  0  0  0  0  0  0  0  0  0  0
   30.8900   30.9400   37.3200 C   0  0  0  0  0  0  0  0  0  0  0  0
   30.3800   31.8600   37.0600 H   0  0  0  0  0  0  0  0  0  0  0  0
   30.5900   30.7000   38.3400 H   0  0  0  0  0  0  0  0  0  0  0  0
   30.3700   29.9300   36.3000 C   0  0  0  0  0  0  0  0  0  0  0  0
   30.9100   29.0100   36.5200 H   0  0  0  0  0  0  0  0  0  0  0  0
   29.3100   29.6900   36.4500 H   0  0  0  0  0  0  0  0  0  0  0  0
   30.5400   30.2800   35.2900 H   0  0  0  0  0  0  0  0  0  0  0  0
   32.0800   33.9400   37.6600 C   0  0  0  0  0  0  0  0  0  0  0  0
   30.9900   34.3500   38.0700 O   0  0  0  0  0  0  0  0  0  0  0  0
   34.8600   28.6300   33.6100 N   0  0  0  0  0  0  0  0  0  0  0  0
   34.2400   28.0500   33.0600 H   0  0  0  0  0  0  0  0  0  0  0  0
   36.0600   27.9400   34.0100 C   0  0  0  0  0  0  0  0  0  0  0  0
   36.4700   28.5000   34.8500 H   0  0  0  0  0  0  0  0  0  0  0  0
   35.6600   26.5200   34.4200 C   0  0  0  0  0  0  0  0  0  0  0  0
   36.5400   25.9300   34.6500 H   0  0  0  0  0  0  0  0  0  0  0  0
   35.2000   26.1100   33.5200 H   0  0  0  0  0  0  0  0  0  0  0  0
   34.6500   26.3700   35.5300 C   0  0  0  0  0  0  0  0  0  0  0  0
   34.7900   27.0200   36.7700 C   0  0  0  0  0  0  0  0  0  0  0  0
   35.6000   27.7300   36.8900 H   0  0  0  0  0  0  0  0  0  0  0  0
   33.9200   26.8100   37.8400 C   0  0  0  0  0  0  0  0  0  0  0  0
   33.9200   27.3900   38.7500 H   0  0  0  0  0  0  0  0  0  0  0  0
   32.9000   25.8400   37.6900 C   0  0  0  0  0  0  0  0  0  0  0  0
   32.0600   25.7800   38.7600 O   0  0  0  0  0  0  0  0  0  0  0  0
   31.6700   26.6400   38.9400 H   0  0  0  0  0  0  0  0  0  0  0  0
   32.7800   25.1600   36.4600 C   0  0  0  0  0  0  0  0  0  0  0  0
   31.9500   24.4700   36.3500 H   0  0  0  0  0  0  0  0  0  0  0  0
   33.6500   25.4100   35.3900 C   0  0  0  0  0  0  0  0  0  0  0  0
   33.5800   24.8700   34.4600 H   0  0  0  0  0  0  0  0  0  0  0  0
   37.0500   27.8300   32.8500 C   0  0  0  0  0  0  0  0  0  0  0  0
   38.0400   27.1400   33.1000 O   0  0  0  0  0  0  0  0  0  0  0  0
   37.5800   21.2200   35.3100 N   0  0  0  0  0  0  0  0  0  0  0  0
   37.2900   20.7200   34.4900 H   0  0  0  0  0  0  0  0  0  0  0  0
   38.0200   20.4200   36.4300 C   0  0  0  0  0  0  0  0  0  0  0  0
   39.0100   20.8000   36.6800 H   0  0  0  0  0  0  0  0  0  0  0  0
   37.1700   20.6700   37.6700 C   0  0  0  0  0  0  0  0  0  0  0  0
   36.1600   20.2900   37.4500 H   0  0  0  0  0  0  0  0  0  0  0  0
   37.0400   21.7400   37.8200 H   0  0  0  0  0  0  0  0  0  0  0  0
   37.6900   20.1200   38.9700 C   0  0  0  0  0  0  0  0  0  0  0  0
   38.5300   20.6800   39.9300 N   0  0  0  0  0  0  0  0  0  0  0  0
   38.7600   19.7700   40.8900 C   0  0  0  0  0  0  0  0  0  0  0  0
   39.2900   19.9500   41.8100 H   0  0  0  0  0  0  0  0  0  0  0  0
   38.2600   18.5800   40.5200 N   0  0  0  0  0  0  0  0  0  0  0  0
   38.3100   17.8100   41.1600 H   0  0  0  0  0  0  0  0  0  0  0  0
   37.5200   18.8300   39.3700 C   0  0  0  0  0  0  0  0  0  0  0  0
   36.9900   18.0800   38.7900 H   0  0  0  0  0  0  0  0  0  0  0  0
   38.2000   18.9500   36.0600 C   0  0  0  0  0  0  0  0  0  0  0  0
   37.3300   18.4300   35.3600 O   0  0  0  0  0  0  0  0  0  0  0  0
   35.3700   15.6100   35.0100 N   0  0  0  0  0  0  0  0  0  0  0  0
   35.9200   15.6800   35.8600 H   0  0  0  0  0  0  0  0  0  0  0  0
   33.9800   15.9800   35.1500 C   0  0  0  0  0  0  0  0  0  0  0  0
   33.4000   15.1200   34.8100 H   0  0  0  0  0  0  0  0  0  0  0  0
   33.6200   16.1400   36.6200 C   0  0  0  0  0  0  0  0  0  0  0  0
   33.7900   15.2000   37.1500 H   0  0  0  0  0  0  0  0  0  0  0  0
   34.4200   17.1900   37.3800 C   0  0  0  0  0  0  0  0  0  0  0  0
   34.3100   16.9500   38.4400 H   0  0  0  0  0  0  0  0  0  0  0  0
   35.4900   17.0300   37.2400 H   0  0  0  0  0  0  0  0  0  0  0  0
   34.0900   18.2200   37.1900 H   0  0  0  0  0  0  0  0  0  0  0  0
   32.1400   16.4500   36.8200 C   0  0  0  0  0  0  0  0  0  0  0  0
   31.9000   17.3500   36.2500 H   0  0  0  0  0  0  0  0  0  0  0  0
   31.9000   16.6100   37.8800 H   0  0  0  0  0  0  0  0  0  0  0  0
   31.3400   15.2600   36.3100 C   0  0  0  0  0  0  0  0  0  0  0  0
   31.6100   14.3600   36.8800 H   0  0  0  0  0  0  0  0  0  0  0  0
   30.2800   15.3700   36.5400 H   0  0  0  0  0  0  0  0  0  0  0  0
   31.3200   15.1600   35.2300 H   0  0  0  0  0  0  0  0  0  0  0  0
   33.5200   17.1600   34.3000 C   0  0  0  0  0  0  0  0  0  0  0  0
   32.4300   17.1700   33.7300 O   0  0  0  0  0  0  0  0  0  0  0  0
   34.3400   18.2000   34.1200 N   0  0  0  0  0  0  0  0  0  0  0  0
   35.2500   17.9100   34.4500 H   0  0  0  0  0  0  0  0  0  0  0  0
   34.1100   19.4400   33.4100 C   0  0  0  0  0  0  0  0  0  0  0  0
   33.2100   19.2600   32.8200 H   0  0  0  0  0  0  0  0  0  0  0  0
   33.8800   20.6700   34.2900 C   0  0  0  0  0  0  0  0  0  0  0  0
   34.8100   20.5500   34.8500 H   0  0  0  0  0  0  0  0  0  0  0  0
   33.9000   22.0400   33.6200 C   0  0  0  0  0  0  0  0  0  0  0  0
   33.0000   22.3300   33.0900 H   0  0  0  0  0  0  0  0  0  0  0  0
   34.1300   22.7700   34.4000 H   0  0  0  0  0  0  0  0  0  0  0  0
   34.6200   22.1300   32.8000 H   0  0  0  0  0  0  0  0  0  0  0  0
   32.7500   20.4800   35.2900 C   0  0  0  0  0  0  0  0  0  0  0  0
   32.8500   19.4800   35.7100 H   0  0  0  0  0  0  0  0  0  0  0  0
   31.7200   20.6300   34.9500 H   0  0  0  0  0  0  0  0  0  0  0  0
   32.8500   21.4300   36.4800 C   0  0  0  0  0  0  0  0  0  0  0  0
   32.7000   22.4900   36.3100 H   0  0  0  0  0  0  0  0  0  0  0  0
   32.1100   21.0700   37.1900 H   0  0  0  0  0  0  0  0  0  0  0  0
   33.8300   21.2400   36.9200 H   0  0  0  0  0  0  0  0  0  0  0  0
   35.2500   19.6500   32.4200 C   0  0  0  0  0  0  0  0  0  0  0  0
   36.3500   19.9400   32.8800 O   0  0  0  0  0  0  0  0  0  0  0  0
   20.8630   26.8460   44.4250 H   0  0  0  0  0  0  0  0  0  0  0  0
   21.9340   24.2960   41.2110 H   0  0  0  0  0  0  0  0  0  0  0  0
   26.8530   17.9130   36.6050 H   0  0  0  0  0  0  0  0  0  0  0  0
   25.7390   20.6690   42.5120 H   0  0  0  0  0  0  0  0  0  0  0  0
   23.3310   17.8000   48.4290 H   0  0  0  0  0  0  0  0  0  0  0  0
   22.2070   19.3520   51.0100 H   0  0  0  0  0  0  0  0  0  0  0  0
   35.1300   38.7270   44.1670 H   0  0  0  0  0  0  0  0  0  0  0  0
   32.5470   34.5710   36.8900 H   0  0  0  0  0  0  0  0  0  0  0  0
   34.6630   29.6200   33.6400 H   0  0  0  0  0  0  0  0  0  0  0  0
   36.9010   28.3760   31.9070 H   0  0  0  0  0  0  0  0  0  0  0  0
   37.7990   22.2030   35.2340 H   0  0  0  0  0  0  0  0  0  0  0  0
   39.1030   18.4280   36.4080 H   0  0  0  0  0  0  0  0  0  0  0  0
   35.8630   15.1480   34.2590 H   0  0  0  0  0  0  0  0  0  0  0  0
   35.0930   19.6910   31.3320 H   0  0  0  0  0  0  0  0  0  0  0  0
  1  2  1  0  0  0  0
  1  3  1  0  0  0  0
  3  4  1  0  0  0  0
  3  5  1  0  0  0  0
  5  6  1  0  0  0  0
  5  7  1  0  0  0  0
  5  8  1  0  0  0  0
  8  9  4  0  0  0  0
  9 10  1  0  0  0  0
  9 11  4  0  0  0  0
 11 12  1  0  0  0  0
 11 13  4  0  0  0  0
 13 14  1  0  0  0  0
 14 15  1  0  0  0  0
 13 16  4  0  0  0  0
 16 17  1  0  0  0  0
  8 18  4  0  0  0  0
 16 18  4  0  0  0  0
 18 19  1  0  0  0  0
  3 20  1  0  0  0  0
 20 21  2  0  0  0  0
 22 23  1  0  0  0  0
 22 24  1  0  0  0  0
 24 25  1  0  0  0  0
 24 26  1  0  0  0  0
 26 27  1  0  0  0  0
 26 28  1  0  0  0  0
 26 29  1  0  0  0  0
 29 30  4  0  0  0  0
 30 31  1  0  0  0  0
 30 32  4  0  0  0  0
 32 33  1  0  0  0  0
 32 34  4  0  0  0  0
 34 35  1  0  0  0  0
 34 36  4  0  0  0  0
 36 37  1  0  0  0  0
 29 38  4  0  0  0  0
 36 38  4  0  0  0  0
 38 39  1  0  0  0  0
 24 40  1  0  0  0  0
 40 41  2  0  0  0  0
 40 42  4  0  0  0  0
 42 43  1  0  0  0  0
 42 44  1  0  0  0  0
 44 45  1  0  0  0  0
 44 46  1  0  0  0  0
 46 47  1  0  0  0  0
 46 48  1  0  0  0  0
 46 49  1  0  0  0  0
 49 50  4  0  0  0  0
 49 51  4  0  0  0  0
 44 52  1  0  0  0  0
 52 53  2  0  0  0  0
 54 55  1  0  0  0  0
 54 56  1  0  0  0  0
 56 57  1  0  0  0  0
 56 58  1  0  0  0  0
 58 59  1  0  0  0  0
 58 60  1  0  0  0  0
 58 61  1  0  0  0  0
 61 62  1  0  0  0  0
 61 63  1  0  0  0  0
 61 64  1  0  0  0  0
 64 65  1  0  0  0  0
 64 66  1  0  0  0  0
 64 67  1  0  0  0  0
 67 68  1  0  0  0  0
 67 69  4  0  0  0  0
 69 70  4  0  0  0  0
 70 71  1  0  0  0  0
 70 72  1  0  0  0  0
 69 73  4  0  0  0  0
 73 74  1  0  0  0  0
 73 75  1  0  0  0  0
 56 76  1  0  0  0  0
 76 77  2  0  0  0  0
 78 79  1  0  0  0  0
 78 80  1  0  0  0  0
 80 81  1  0  0  0  0
 80 82  1  0  0  0  0
 82 83  1  0  0  0  0
 82 84  1  0  0  0  0
 82 85  1  0  0  0  0
 85 86  1  0  0  0  0
 85 87  1  0  0  0  0
 85 88  1  0  0  0  0
 88 89  2  0  0  0  0
 88 90  4  0  0  0  0
 90 91  1  0  0  0  0
 90 92  1  0  0  0  0
 80 93  1  0  0  0  0
 93 94  2  0  0  0  0
 93 95  4  0  0  0  0
 95 96  1  0  0  0  0
 95 97  1  0  0  0  0
 97 98  1  0  0  0  0
 97 99  1  0  0  0  0
 99100  1  0  0  0  0
 99101  1  0  0  0  0
 99102  1  0  0  0  0
102103  1  0  0  0  0
102104  1  0  0  0  0
102105  1  0  0  0  0
105106  4  0  0  0  0
105107  4  0  0  0  0
 97108  1  0  0  0  0
108109  2  0  0  0  0
108110  4  0  0  0  0
110111  1  0  0  0  0
110112  1  0  0  0  0
112113  1  0  0  0  0
112114  1  0  0  0  0
114115  1  0  0  0  0
114116  1  0  0  0  0
116117  1  0  0  0  0
116118  1  0  0  0  0
116119  1  0  0  0  0
114120  1  0  0  0  0
120121  1  0  0  0  0
120122  1  0  0  0  0
120123  1  0  0  0  0
112124  1  0  0  0  0
124125  2  0  0  0  0
124126  4  0  0  0  0
126127  1  0  0  0  0
126128  1  0  0  0  0
128129  1  0  0  0  0
128130  1  0  0  0  0
130131  1  0  0  0  0
130132  1  0  0  0  0
132133  1  0  0  0  0
132134  1  0  0  0  0
132135  1  0  0  0  0
130136  1  0  0  0  0
136137  1  0  0  0  0
136138  1  0  0  0  0
136139  1  0  0  0  0
139140  1  0  0  0  0
139141  1  0  0  0  0
139142  1  0  0  0  0
128143  1  0  0  0  0
143144  2  0  0  0  0
145146  1  0  0  0  0
145147  1  0  0  0  0
147148  1  0  0  0  0
147149  1  0  0  0  0
149150  1  0  0  0  0
149151  1  0  0  0  0
149152  1  0  0  0  0
152153  4  0  0  0  0
153154  1  0  0  0  0
153155  4  0  0  0  0
155156  1  0  0  0  0
155157  4  0  0  0  0
157158  1  0  0  0  0
158159  1  0  0  0  0
157160  4  0  0  0  0
160161  1  0  0  0  0
152162  4  0  0  0  0
160162  4  0  0  0  0
162163  1  0  0  0  0
147164  1  0  0  0  0
164165  2  0  0  0  0
166167  1  0  0  0  0
166168  1  0  0  0  0
168169  1  0  0  0  0
168170  1  0  0  0  0
170171  1  0  0  0  0
170172  1  0  0  0  0
170173  1  0  0  0  0
173174  4  0  0  0  0
174175  2  0  0  0  0
175176  1  0  0  0  0
175177  4  0  0  0  0
177178  1  0  0  0  0
173179  2  0  0  0  0
177179  1  0  0  0  0
179180  1  0  0  0  0
168181  1  0  0  0  0
181182  2  0  0  0  0
183184  1  0  0  0  0
183185  1  0  0  0  0
185186  1  0  0  0  0
185187  1  0  0  0  0
187188  1  0  0  0  0
187189  1  0  0  0  0
189190  1  0  0  0  0
189191  1  0  0  0  0
189192  1  0  0  0  0
187193  1  0  0  0  0
193194  1  0  0  0  0
193195  1  0  0  0  0
193196  1  0  0  0  0
196197  1  0  0  0  0
196198  1  0  0  0  0
196199  1  0  0  0  0
185200  1  0  0  0  0
200201  2  0  0  0  0
200202  4  0  0  0  0
202203  1  0  0  0  0
202204  1  0  0  0  0
204205  1  0  0  0  0
204206  1  0  0  0  0
206207  1  0  0  0  0
206208  1  0  0  0  0
208209  1  0  0  0  0
208210  1  0  0  0  0
208211  1  0  0  0  0
206212  1  0  0  0  0
212213  1  0  0  0  0
212214  1  0  0  0  0
212215  1  0  0  0  0
215216  1  0  0  0  0
215217  1  0  0  0  0
215218  1  0  0  0  0
204219  1  0  0  0  0
219220  2  0  0  0  0
  1221  1  0  0  0  0
 20222  1  0  0  0  0
 22223  1  0  0  0  0
 52224  1  0  0  0  0
 54225  1  0  0  0  0
 76226  1  0  0  0  0
 78227  1  0  0  0  0
143228  1  0  0  0  0
145229  1  0  0  0  0
164230  1  0  0  0  0
166231  1  0  0  0  0
181232  1  0  0  0  0
183233  1  0  0  0  0
219234  1  0  0  0  0
M  CHG  1   1  -1
M  END
