 xtb: 6.7.1 (edcfbbe)
          01052609073D

 59 61  0     0  0            999 V2000
   11.4600    8.2600   57.9600 C   0  0  0  0  0  0  0  0  0  0  0  0
   10.5600    8.6500   58.9300 N   0  0  0  0  0  0  0  0  0  0  0  0
    9.6500    7.8500   59.6400 C   0  0  0  0  0  0  0  0  0  0  0  0
    6.5600    8.7300   61.4600 C   0  0  0  0  0  0  0  0  0  0  0  0
    9.3300    6.4500   59.1700 C   0  0  0  0  0  0  0  0  0  0  0  0
   10.1800    5.3000   59.6700 C   0  0  0  0  0  0  0  0  0  0  0  0
   10.4600    5.2800   61.0400 C   0  0  0  0  0  0  0  0  0  0  0  0
   11.3400    4.2900   61.4900 C   0  0  0  0  0  0  0  0  0  0  0  0
   11.9400    3.4000   60.5900 C   0  0  0  0  0  0  0  0  0  0  0  0
   11.5700    3.4400   59.2400 C   0  0  0  0  0  0  0  0  0  0  0  0
   10.5900    4.3200   58.7600 C   0  0  0  0  0  0  0  0  0  0  0  0
    7.6400    7.9800   60.9200 O   0  0  0  0  0  0  0  0  0  0  0  0
    8.9300    9.8300   60.7500 O   0  0  0  0  0  0  0  0  0  0  0  0
    8.7200    8.6600   60.4600 C   0  0  0  0  0  0  0  0  0  0  0  0
    5.5900    7.8100   62.2300 C   0  0  0  0  0  0  0  0  0  0  0  0
   11.6100   10.1000   55.3600 C   0  0  0  0  0  0  0  0  0  0  0  0
   11.5400    7.1400   57.5100 O   0  0  0  0  0  0  0  0  0  0  0  0
   11.6400   11.6000   55.6800 C   0  0  0  0  0  0  0  0  0  0  0  0
   10.9900   11.8500   57.3900 S   0  0  0  0  0  0  0  0  0  0  0  0
   12.2900   10.7800   58.1400 C   0  0  0  0  0  0  0  0  0  0  0  0
   12.4300    9.3700   57.5400 C   0  0  0  0  0  0  0  0  0  0  0  0
   12.7100    9.4700   56.1000 N   0  0  0  0  0  0  0  0  0  0  0  0
   13.4500    8.1500   55.3200 S   0  0  0  0  0  0  0  0  0  0  0  0
   14.6100    9.0100   54.2700 C   0  0  0  0  0  0  0  0  0  0  0  0
   15.8600    9.4100   54.7500 C   0  0  0  0  0  0  0  0  0  0  0  0
   16.7600   10.1300   53.9500 C   0  0  0  0  0  0  0  0  0  0  0  0
   16.3400   10.5200   52.6800 C   0  0  0  0  0  0  0  0  0  0  0  0
   15.0600   10.2100   52.2200 C   0  0  0  0  0  0  0  0  0  0  0  0
   14.2000    9.4400   53.0100 C   0  0  0  0  0  0  0  0  0  0  0  0
   12.5200    7.4500   54.4300 O   0  0  0  0  0  0  0  0  0  0  0  0
   14.2800    7.5100   56.3400 O   0  0  0  0  0  0  0  0  0  0  0  0
   17.3600   11.2900   51.8600 C   0  0  0  0  0  0  0  0  0  0  0  0
   10.4600    9.6200   59.2200 H   0  0  0  0  0  0  0  0  0  0  0  0
    6.9400    9.5400   62.1100 H   0  0  0  0  0  0  0  0  0  0  0  0
    6.0200    9.1400   60.6000 H   0  0  0  0  0  0  0  0  0  0  0  0
    8.2800    6.3900   59.4600 H   0  0  0  0  0  0  0  0  0  0  0  0
    9.2600    6.4200   58.0700 H   0  0  0  0  0  0  0  0  0  0  0  0
   10.0400    6.0500   61.6800 H   0  0  0  0  0  0  0  0  0  0  0  0
   11.3900    4.2700   62.5800 H   0  0  0  0  0  0  0  0  0  0  0  0
   12.5600    2.5800   60.9400 H   0  0  0  0  0  0  0  0  0  0  0  0
   11.9400    2.6000   58.6700 H   0  0  0  0  0  0  0  0  0  0  0  0
   10.2400    4.3600   57.7400 H   0  0  0  0  0  0  0  0  0  0  0  0
    4.8500    8.3800   62.8100 H   0  0  0  0  0  0  0  0  0  0  0  0
    6.1500    7.1600   62.9000 H   0  0  0  0  0  0  0  0  0  0  0  0
    5.0900    7.1000   61.5600 H   0  0  0  0  0  0  0  0  0  0  0  0
   10.5900    9.6900   55.3600 H   0  0  0  0  0  0  0  0  0  0  0  0
   11.9300   10.1600   54.3100 H   0  0  0  0  0  0  0  0  0  0  0  0
   12.6600   12.0000   55.6500 H   0  0  0  0  0  0  0  0  0  0  0  0
   10.9300   12.1200   55.0200 H   0  0  0  0  0  0  0  0  0  0  0  0
   13.2300   11.3100   57.9100 H   0  0  0  0  0  0  0  0  0  0  0  0
   12.0700   10.7400   59.2100 H   0  0  0  0  0  0  0  0  0  0  0  0
   13.4200    9.0300   57.8700 H   0  0  0  0  0  0  0  0  0  0  0  0
   16.2800    9.0900   55.7000 H   0  0  0  0  0  0  0  0  0  0  0  0
   17.7000   10.4200   54.4100 H   0  0  0  0  0  0  0  0  0  0  0  0
   14.7700   10.7100   51.3000 H   0  0  0  0  0  0  0  0  0  0  0  0
   13.2300    9.1900   52.5800 H   0  0  0  0  0  0  0  0  0  0  0  0
   17.1000   12.3300   52.0800 H   0  0  0  0  0  0  0  0  0  0  0  0
   17.2500   11.2000   50.7700 H   0  0  0  0  0  0  0  0  0  0  0  0
   18.4000   11.0800   52.1200 H   0  0  0  0  0  0  0  0  0  0  0  0
  1  2  1  0  0  0  0
  2  3  4  0  0  0  0
  3  5  1  0  0  0  0
  5  6  1  0  0  0  0
  6  7  4  0  0  0  0
  7  8  4  0  0  0  0
  8  9  4  0  0  0  0
  9 10  4  0  0  0  0
  6 11  4  0  0  0  0
 10 11  4  0  0  0  0
  4 12  1  0  0  0  0
  3 14  1  0  0  0  0
 12 14  1  0  0  0  0
 13 14  2  0  0  0  0
  4 15  1  0  0  0  0
  1 17  2  0  0  0  0
 16 18  1  0  0  0  0
 18 19  1  0  0  0  0
 19 20  1  0  0  0  0
  1 21  1  0  0  0  0
 20 21  1  0  0  0  0
 16 22  1  0  0  0  0
 21 22  1  0  0  0  0
 22 23  1  0  0  0  0
 23 24  1  0  0  0  0
 24 25  4  0  0  0  0
 25 26  4  0  0  0  0
 26 27  4  0  0  0  0
 27 28  4  0  0  0  0
 24 29  4  0  0  0  0
 28 29  4  0  0  0  0
 23 30  2  0  0  0  0
 23 31  2  0  0  0  0
 27 32  1  0  0  0  0
  2 33  1  0  0  0  0
  4 34  1  0  0  0  0
  4 35  1  0  0  0  0
  5 36  1  0  0  0  0
  5 37  1  0  0  0  0
  7 38  1  0  0  0  0
  8 39  1  0  0  0  0
  9 40  1  0  0  0  0
 10 41  1  0  0  0  0
 11 42  1  0  0  0  0
 15 43  1  0  0  0  0
 15 44  1  0  0  0  0
 15 45  1  0  0  0  0
 16 46  1  0  0  0  0
 16 47  1  0  0  0  0
 18 48  1  0  0  0  0
 18 49  1  0  0  0  0
 20 50  1  0  0  0  0
 20 51  1  0  0  0  0
 21 52  1  0  0  0  0
 25 53  1  0  0  0  0
 26 54  1  0  0  0  0
 28 55  1  0  0  0  0
 29 56  1  0  0  0  0
 32 57  1  0  0  0  0
 32 58  1  0  0  0  0
 32 59  1  0  0  0  0
M  CHG  1   1   1
M  END
