 xtb: 6.7.1 (edcfbbe)
          01052609063D

 59 61  0     0  0            999 V2000
   30.5900   21.8300   48.0400 C   0  0  0  0  0  0  0  0  0  0  0  0
   30.6200   22.9900   48.7900 N   0  0  0  0  0  0  0  0  0  0  0  0
   31.6300   23.8400   49.2500 C   0  0  0  0  0  0  0  0  0  0  0  0
   31.9200   26.4700   51.8800 C   0  0  0  0  0  0  0  0  0  0  0  0
   32.9700   23.8400   48.5600 C   0  0  0  0  0  0  0  0  0  0  0  0
   33.1200   24.6900   47.3100 C   0  0  0  0  0  0  0  0  0  0  0  0
   33.0200   24.0700   46.0600 C   0  0  0  0  0  0  0  0  0  0  0  0
   32.9800   24.8100   44.8700 C   0  0  0  0  0  0  0  0  0  0  0  0
   33.0300   26.2100   44.9500 C   0  0  0  0  0  0  0  0  0  0  0  0
   32.9900   26.8100   46.2100 C   0  0  0  0  0  0  0  0  0  0  0  0
   33.0800   26.0800   47.4000 C   0  0  0  0  0  0  0  0  0  0  0  0
   32.1800   25.5500   50.8200 O   0  0  0  0  0  0  0  0  0  0  0  0
   30.1900   24.4700   51.0200 O   0  0  0  0  0  0  0  0  0  0  0  0
   31.2100   24.7000   50.4000 C   0  0  0  0  0  0  0  0  0  0  0  0
   33.0500   27.5100   51.9000 C   0  0  0  0  0  0  0  0  0  0  0  0
   28.9000   20.0200   50.0400 C   0  0  0  0  0  0  0  0  0  0  0  0
   31.5700   21.2700   47.5800 O   0  0  0  0  0  0  0  0  0  0  0  0
   27.7000   20.7900   50.6100 C   0  0  0  0  0  0  0  0  0  0  0  0
   27.7300   22.5500   50.0600 S   0  0  0  0  0  0  0  0  0  0  0  0
   28.0000   22.1900   48.2700 C   0  0  0  0  0  0  0  0  0  0  0  0
   29.1800   21.2700   47.8900 C   0  0  0  0  0  0  0  0  0  0  0  0
   28.9200   20.0000   48.5700 N   0  0  0  0  0  0  0  0  0  0  0  0
   29.5800   18.5700   47.9200 S   0  0  0  0  0  0  0  0  0  0  0  0
   28.3900   17.3100   48.3800 C   0  0  0  0  0  0  0  0  0  0  0  0
   27.0500   17.4500   48.0000 C   0  0  0  0  0  0  0  0  0  0  0  0
   26.1200   16.4900   48.4000 C   0  0  0  0  0  0  0  0  0  0  0  0
   26.4500   15.4100   49.2400 C   0  0  0  0  0  0  0  0  0  0  0  0
   27.8100   15.2300   49.5100 C   0  0  0  0  0  0  0  0  0  0  0  0
   28.7600   16.1800   49.1100 C   0  0  0  0  0  0  0  0  0  0  0  0
   30.8600   18.3400   48.6000 O   0  0  0  0  0  0  0  0  0  0  0  0
   29.5200   18.7400   46.4700 O   0  0  0  0  0  0  0  0  0  0  0  0
   25.4500   14.3300   49.5900 C   0  0  0  0  0  0  0  0  0  0  0  0
   29.8100   23.2300   49.3400 H   0  0  0  0  0  0  0  0  0  0  0  0
   30.9500   26.9200   51.6500 H   0  0  0  0  0  0  0  0  0  0  0  0
   31.7400   25.9800   52.8500 H   0  0  0  0  0  0  0  0  0  0  0  0
   33.7400   24.1100   49.2900 H   0  0  0  0  0  0  0  0  0  0  0  0
   33.2500   22.8000   48.3400 H   0  0  0  0  0  0  0  0  0  0  0  0
   32.8500   23.0100   45.9200 H   0  0  0  0  0  0  0  0  0  0  0  0
   32.9400   24.2800   43.9200 H   0  0  0  0  0  0  0  0  0  0  0  0
   32.8500   26.7500   44.0300 H   0  0  0  0  0  0  0  0  0  0  0  0
   32.9400   27.9000   46.2500 H   0  0  0  0  0  0  0  0  0  0  0  0
   33.0500   26.5000   48.4000 H   0  0  0  0  0  0  0  0  0  0  0  0
   34.0900   27.1800   51.8800 H   0  0  0  0  0  0  0  0  0  0  0  0
   33.0500   28.0700   52.8500 H   0  0  0  0  0  0  0  0  0  0  0  0
   32.8300   28.1000   51.0000 H   0  0  0  0  0  0  0  0  0  0  0  0
   29.8300   20.4300   50.4500 H   0  0  0  0  0  0  0  0  0  0  0  0
   28.7300   19.0300   50.4900 H   0  0  0  0  0  0  0  0  0  0  0  0
   26.7300   20.3600   50.3000 H   0  0  0  0  0  0  0  0  0  0  0  0
   27.7500   20.8500   51.7000 H   0  0  0  0  0  0  0  0  0  0  0  0
   27.0800   21.7000   47.9400 H   0  0  0  0  0  0  0  0  0  0  0  0
   28.0300   23.1700   47.7900 H   0  0  0  0  0  0  0  0  0  0  0  0
   29.1800   21.0800   46.8100 H   0  0  0  0  0  0  0  0  0  0  0  0
   26.6400   18.2900   47.4500 H   0  0  0  0  0  0  0  0  0  0  0  0
   25.1000   16.5300   48.0200 H   0  0  0  0  0  0  0  0  0  0  0  0
   28.1100   14.4700   50.2300 H   0  0  0  0  0  0  0  0  0  0  0  0
   29.8400   16.0600   49.2300 H   0  0  0  0  0  0  0  0  0  0  0  0
   25.6700   13.9900   50.6100 H   0  0  0  0  0  0  0  0  0  0  0  0
   25.3200   13.4300   48.9800 H   0  0  0  0  0  0  0  0  0  0  0  0
   24.5100   14.8600   49.7800 H   0  0  0  0  0  0  0  0  0  0  0  0
  1  2  1  0  0  0  0
  2  3  4  0  0  0  0
  3  5  1  0  0  0  0
  5  6  1  0  0  0  0
  6  7  4  0  0  0  0
  7  8  4  0  0  0  0
  8  9  4  0  0  0  0
  9 10  4  0  0  0  0
  6 11  4  0  0  0  0
 10 11  4  0  0  0  0
  4 12  1  0  0  0  0
  3 14  1  0  0  0  0
 12 14  1  0  0  0  0
 13 14  2  0  0  0  0
  4 15  1  0  0  0  0
  1 17  2  0  0  0  0
 16 18  1  0  0  0  0
 18 19  1  0  0  0  0
 19 20  1  0  0  0  0
  1 21  1  0  0  0  0
 20 21  1  0  0  0  0
 16 22  1  0  0  0  0
 21 22  1  0  0  0  0
 22 23  1  0  0  0  0
 23 24  1  0  0  0  0
 24 25  4  0  0  0  0
 25 26  4  0  0  0  0
 26 27  4  0  0  0  0
 27 28  4  0  0  0  0
 24 29  4  0  0  0  0
 28 29  4  0  0  0  0
 23 30  2  0  0  0  0
 23 31  2  0  0  0  0
 27 32  1  0  0  0  0
  2 33  1  0  0  0  0
  4 34  1  0  0  0  0
  4 35  1  0  0  0  0
  5 36  1  0  0  0  0
  5 37  1  0  0  0  0
  7 38  1  0  0  0  0
  8 39  1  0  0  0  0
  9 40  1  0  0  0  0
 10 41  1  0  0  0  0
 11 42  1  0  0  0  0
 15 43  1  0  0  0  0
 15 44  1  0  0  0  0
 15 45  1  0  0  0  0
 16 46  1  0  0  0  0
 16 47  1  0  0  0  0
 18 48  1  0  0  0  0
 18 49  1  0  0  0  0
 20 50  1  0  0  0  0
 20 51  1  0  0  0  0
 21 52  1  0  0  0  0
 25 53  1  0  0  0  0
 26 54  1  0  0  0  0
 28 55  1  0  0  0  0
 29 56  1  0  0  0  0
 32 57  1  0  0  0  0
 32 58  1  0  0  0  0
 32 59  1  0  0  0  0
M  CHG  1   1   1
M  END
