 xtb: 6.7.1 (edcfbbe)
          01052609073D

185183  0     0  0            999 V2000
   14.5000    5.8600   40.9800 N   0  0  0  0  0  0  0  0  0  0  0  0
   14.8800    6.7900   41.0700 H   0  0  0  0  0  0  0  0  0  0  0  0
   14.9000    4.8900   41.9800 C   0  0  0  0  0  0  0  0  0  0  0  0
   14.5200    3.9100   41.7100 H   0  0  0  0  0  0  0  0  0  0  0  0
   16.4000    4.6200   41.8600 C   0  0  0  0  0  0  0  0  0  0  0  0
   16.6400    4.3800   40.8300 H   0  0  0  0  0  0  0  0  0  0  0  0
   16.6200    3.7500   42.4800 H   0  0  0  0  0  0  0  0  0  0  0  0
   17.3200    5.7100   42.3800 C   0  0  0  0  0  0  0  0  0  0  0  0
   17.9700    6.4600   41.4000 C   0  0  0  0  0  0  0  0  0  0  0  0
   17.7500    6.3000   40.3500 H   0  0  0  0  0  0  0  0  0  0  0  0
   18.8800    7.4500   41.7800 C   0  0  0  0  0  0  0  0  0  0  0  0
   19.3400    8.1200   41.0700 H   0  0  0  0  0  0  0  0  0  0  0  0
   19.1600    7.6800   43.1400 C   0  0  0  0  0  0  0  0  0  0  0  0
   19.8200    8.4900   43.3700 H   0  0  0  0  0  0  0  0  0  0  0  0
   18.5600    6.9100   44.1500 C   0  0  0  0  0  0  0  0  0  0  0  0
   18.8100    7.1100   45.1800 H   0  0  0  0  0  0  0  0  0  0  0  0
   17.6100    5.9700   43.7200 C   0  0  0  0  0  0  0  0  0  0  0  0
   17.0900    5.3600   44.4400 H   0  0  0  0  0  0  0  0  0  0  0  0
   14.4200    5.1700   43.4000 C   0  0  0  0  0  0  0  0  0  0  0  0
   14.2400    4.2400   44.1800 O   0  0  0  0  0  0  0  0  0  0  0  0
   14.2000    6.4300   43.7900 N   0  0  0  0  0  0  0  0  0  0  0  0
   14.4400    7.1500   43.1200 H   0  0  0  0  0  0  0  0  0  0  0  0
   13.7400    6.9400   45.0600 C   0  0  0  0  0  0  0  0  0  0  0  0
   13.2400    6.1300   45.5800 H   0  0  0  0  0  0  0  0  0  0  0  0
   14.9400    7.2700   45.9400 C   0  0  0  0  0  0  0  0  0  0  0  0
   15.3200    8.2300   45.5900 H   0  0  0  0  0  0  0  0  0  0  0  0
   15.7500    6.5400   45.8100 H   0  0  0  0  0  0  0  0  0  0  0  0
   14.6600    7.4600   47.4200 C   0  0  0  0  0  0  0  0  0  0  0  0
   13.5600    7.1000   47.9100 O   0  0  0  0  0  0  0  0  0  0  0  0
   15.5900    7.8900   48.1300 O   0  0  0  0  0  0  0  0  0  0  0  0
   12.8400    8.1600   44.8600 C   0  0  0  0  0  0  0  0  0  0  0  0
   12.8500    8.8000   43.8200 O   0  0  0  0  0  0  0  0  0  0  0  0
   26.7000   15.2900   56.9100 N   0  0  0  0  0  0  0  0  0  0  0  0
   26.4000   16.1500   56.5000 H   0  0  0  0  0  0  0  0  0  0  0  0
   27.0000   14.0800   56.1600 C   0  0  0  0  0  0  0  0  0  0  0  0
   26.8100   14.2300   55.1000 H   0  0  0  0  0  0  0  0  0  0  0  0
   28.4500   13.6400   56.3000 C   0  0  0  0  0  0  0  0  0  0  0  0
   28.6800   12.7500   55.7000 H   0  0  0  0  0  0  0  0  0  0  0  0
   28.6600   13.3700   57.3300 H   0  0  0  0  0  0  0  0  0  0  0  0
   29.4600   14.6800   55.8300 C   0  0  0  0  0  0  0  0  0  0  0  0
   29.2300   15.1000   54.8500 H   0  0  0  0  0  0  0  0  0  0  0  0
   30.4200   14.1500   55.7900 H   0  0  0  0  0  0  0  0  0  0  0  0
   29.6300   15.8900   56.7200 C   0  0  0  0  0  0  0  0  0  0  0  0
   30.1100   15.6600   57.8300 O   0  0  0  0  0  0  0  0  0  0  0  0
   29.1700   17.0200   56.1600 N   0  0  0  0  0  0  0  0  0  0  0  0
   28.6100   16.8700   55.3400 H   0  0  0  0  0  0  0  0  0  0  0  0
   29.1500   17.9300   56.5900 H   0  0  0  0  0  0  0  0  0  0  0  0
   25.9800   12.9700   56.3800 C   0  0  0  0  0  0  0  0  0  0  0  0
   26.3100   11.7900   56.3100 O   0  0  0  0  0  0  0  0  0  0  0  0
   24.7200   13.3800   56.5200 N   0  0  0  0  0  0  0  0  0  0  0  0
   24.5300   14.3500   56.3300 H   0  0  0  0  0  0  0  0  0  0  0  0
   23.5500   12.5400   56.3800 C   0  0  0  0  0  0  0  0  0  0  0  0
   23.6300   11.5600   56.8500 H   0  0  0  0  0  0  0  0  0  0  0  0
   22.3300   13.3600   56.7900 C   0  0  0  0  0  0  0  0  0  0  0  0
   21.4800   12.7900   56.4100 H   0  0  0  0  0  0  0  0  0  0  0  0
   22.4200   14.3400   56.3200 H   0  0  0  0  0  0  0  0  0  0  0  0
   22.2300   13.5600   58.3000 C   0  0  0  0  0  0  0  0  0  0  0  0
   22.9600   14.3200   58.5600 H   0  0  0  0  0  0  0  0  0  0  0  0
   22.4400   12.6200   58.8200 H   0  0  0  0  0  0  0  0  0  0  0  0
   20.8900   13.9100   58.9200 C   0  0  0  0  0  0  0  0  0  0  0  0
   20.8900   14.8900   59.7000 O   0  0  0  0  0  0  0  0  0  0  0  0
   19.8700   13.2200   58.6700 O   0  0  0  0  0  0  0  0  0  0  0  0
   23.4300   12.1700   54.9100 C   0  0  0  0  0  0  0  0  0  0  0  0
   23.1200   11.0100   54.6200 O   0  0  0  0  0  0  0  0  0  0  0  0
   23.7400   13.1100   54.0200 N   0  0  0  0  0  0  0  0  0  0  0  0
   24.1600   13.9900   54.2900 H   0  0  0  0  0  0  0  0  0  0  0  0
   23.4600   13.0100   52.6000 C   0  0  0  0  0  0  0  0  0  0  0  0
   23.2400   11.9600   52.4200 H   0  0  0  0  0  0  0  0  0  0  0  0
   22.3800   14.0100   52.2100 C   0  0  0  0  0  0  0  0  0  0  0  0
   22.3300   14.0900   51.1200 H   0  0  0  0  0  0  0  0  0  0  0  0
   20.9900   13.5800   52.6700 C   0  0  0  0  0  0  0  0  0  0  0  0
   20.7700   13.7600   53.7200 H   0  0  0  0  0  0  0  0  0  0  0  0
   20.2600   14.1000   52.0500 H   0  0  0  0  0  0  0  0  0  0  0  0
   20.9500   12.5000   52.5500 H   0  0  0  0  0  0  0  0  0  0  0  0
   22.6600   15.4200   52.7100 C   0  0  0  0  0  0  0  0  0  0  0  0
   22.7000   15.3500   53.8000 H   0  0  0  0  0  0  0  0  0  0  0  0
   23.6400   15.8600   52.4700 H   0  0  0  0  0  0  0  0  0  0  0  0
   21.8300   16.0200   52.3600 H   0  0  0  0  0  0  0  0  0  0  0  0
   24.7400   13.1700   51.8000 C   0  0  0  0  0  0  0  0  0  0  0  0
   25.8400   13.3900   52.3100 O   0  0  0  0  0  0  0  0  0  0  0  0
   24.7000   12.9700   50.4800 N   0  0  0  0  0  0  0  0  0  0  0  0
   23.8600   12.6100   50.0600 H   0  0  0  0  0  0  0  0  0  0  0  0
   25.7800   13.2200   49.5500 C   0  0  0  0  0  0  0  0  0  0  0  0
   26.5000   12.5000   49.9500 H   0  0  0  0  0  0  0  0  0  0  0  0
   25.3900   12.8100   48.1300 C   0  0  0  0  0  0  0  0  0  0  0  0
   26.2100   13.2200   47.5500 H   0  0  0  0  0  0  0  0  0  0  0  0
   25.6000   11.3000   48.1600 C   0  0  0  0  0  0  0  0  0  0  0  0
   26.6200   11.1200   48.4800 H   0  0  0  0  0  0  0  0  0  0  0  0
   24.8400   10.8400   48.7900 H   0  0  0  0  0  0  0  0  0  0  0  0
   25.3800   10.8400   47.1900 H   0  0  0  0  0  0  0  0  0  0  0  0
   24.0200   13.2300   47.6000 C   0  0  0  0  0  0  0  0  0  0  0  0
   23.7100   14.2400   47.8900 H   0  0  0  0  0  0  0  0  0  0  0  0
   23.2400   12.5800   47.9900 H   0  0  0  0  0  0  0  0  0  0  0  0
   23.9200   13.2500   46.0800 C   0  0  0  0  0  0  0  0  0  0  0  0
   24.0000   12.2300   45.6900 H   0  0  0  0  0  0  0  0  0  0  0  0
   22.9600   13.5900   45.6900 H   0  0  0  0  0  0  0  0  0  0  0  0
   24.7000   13.8800   45.6600 H   0  0  0  0  0  0  0  0  0  0  0  0
   26.2500   14.6600   49.5000 C   0  0  0  0  0  0  0  0  0  0  0  0
   25.5100   15.6400   49.5900 O   0  0  0  0  0  0  0  0  0  0  0  0
   27.9200    8.9700   44.8800 N   0  0  0  0  0  0  0  0  0  0  0  0
   27.3500    8.8800   44.0600 H   0  0  0  0  0  0  0  0  0  0  0  0
   28.2400    7.6800   45.4600 C   0  0  0  0  0  0  0  0  0  0  0  0
   28.4300    7.8300   46.5200 H   0  0  0  0  0  0  0  0  0  0  0  0
   27.0500    6.7300   45.3100 C   0  0  0  0  0  0  0  0  0  0  0  0
   27.1900    5.7000   45.6500 H   0  0  0  0  0  0  0  0  0  0  0  0
   26.9100    6.6600   44.2300 H   0  0  0  0  0  0  0  0  0  0  0  0
   25.7600    7.1100   45.9800 C   0  0  0  0  0  0  0  0  0  0  0  0
   25.6800    6.9900   47.3700 C   0  0  0  0  0  0  0  0  0  0  0  0
   26.5500    6.8100   47.9900 H   0  0  0  0  0  0  0  0  0  0  0  0
   24.4800    7.1500   48.0800 C   0  0  0  0  0  0  0  0  0  0  0  0
   24.5300    7.0800   49.1600 H   0  0  0  0  0  0  0  0  0  0  0  0
   23.3600    7.6000   47.3500 C   0  0  0  0  0  0  0  0  0  0  0  0
   22.1700    7.7700   48.0000 O   0  0  0  0  0  0  0  0  0  0  0  0
   22.3000    7.2600   48.8000 H   0  0  0  0  0  0  0  0  0  0  0  0
   23.4500    7.7900   45.9600 C   0  0  0  0  0  0  0  0  0  0  0  0
   22.6100    8.2800   45.4900 H   0  0  0  0  0  0  0  0  0  0  0  0
   24.6300    7.5000   45.2500 C   0  0  0  0  0  0  0  0  0  0  0  0
   24.7400    7.6300   44.1900 H   0  0  0  0  0  0  0  0  0  0  0  0
   29.5000    7.0700   44.8700 C   0  0  0  0  0  0  0  0  0  0  0  0
   29.7800    5.9000   45.1000 O   0  0  0  0  0  0  0  0  0  0  0  0
   25.5600    1.7900   45.1600 N   0  0  0  0  0  0  0  0  0  0  0  0
   25.2500    1.6700   44.2000 H   0  0  0  0  0  0  0  0  0  0  0  0
   24.8100    1.0700   46.1800 C   0  0  0  0  0  0  0  0  0  0  0  0
   25.4400    0.7100   46.9900 H   0  0  0  0  0  0  0  0  0  0  0  0
   23.6300    1.8700   46.7300 C   0  0  0  0  0  0  0  0  0  0  0  0
   22.9100    2.1600   45.9700 H   0  0  0  0  0  0  0  0  0  0  0  0
   24.0700    2.7600   47.1800 H   0  0  0  0  0  0  0  0  0  0  0  0
   22.9200    1.2100   47.8800 C   0  0  0  0  0  0  0  0  0  0  0  0
   23.3700    1.0700   49.1900 N   0  0  0  0  0  0  0  0  0  0  0  0
   22.5100    0.3000   49.8500 C   0  0  0  0  0  0  0  0  0  0  0  0
   22.6300    0.0700   50.9000 H   0  0  0  0  0  0  0  0  0  0  0  0
   21.4500    0.0200   49.0600 N   0  0  0  0  0  0  0  0  0  0  0  0
   20.7000   -0.6300   49.2300 H   0  0  0  0  0  0  0  0  0  0  0  0
   21.7000    0.6000   47.8300 C   0  0  0  0  0  0  0  0  0  0  0  0
   20.9500    0.6000   47.0500 H   0  0  0  0  0  0  0  0  0  0  0  0
   24.3700   -0.1700   45.4200 C   0  0  0  0  0  0  0  0  0  0  0  0
   23.9200   -0.0500   44.2800 O   0  0  0  0  0  0  0  0  0  0  0  0
   21.2500   -1.1800   42.4900 N   0  0  0  0  0  0  0  0  0  0  0  0
   22.2200   -0.9800   42.6600 H   0  0  0  0  0  0  0  0  0  0  0  0
   20.3100   -0.1200   42.1800 C   0  0  0  0  0  0  0  0  0  0  0  0
   19.8200   -0.4100   41.2600 H   0  0  0  0  0  0  0  0  0  0  0  0
   19.2100   -0.0400   43.2300 C   0  0  0  0  0  0  0  0  0  0  0  0
   18.7100   -1.0100   43.2900 H   0  0  0  0  0  0  0  0  0  0  0  0
   19.8600    0.1700   44.5900 C   0  0  0  0  0  0  0  0  0  0  0  0
   20.0700    1.2400   44.7000 H   0  0  0  0  0  0  0  0  0  0  0  0
   19.0600   -0.0500   45.3000 H   0  0  0  0  0  0  0  0  0  0  0  0
   20.6600   -0.5000   44.8800 H   0  0  0  0  0  0  0  0  0  0  0  0
   18.1500    1.0300   42.9400 C   0  0  0  0  0  0  0  0  0  0  0  0
   18.0700    1.1700   41.8700 H   0  0  0  0  0  0  0  0  0  0  0  0
   18.4000    2.0000   43.3700 H   0  0  0  0  0  0  0  0  0  0  0  0
   16.7800    0.5800   43.4200 C   0  0  0  0  0  0  0  0  0  0  0  0
   16.5800   -0.3100   42.8200 H   0  0  0  0  0  0  0  0  0  0  0  0
   16.7900    0.1700   44.4300 H   0  0  0  0  0  0  0  0  0  0  0  0
   15.9700    1.2900   43.2800 H   0  0  0  0  0  0  0  0  0  0  0  0
   20.9800    1.2300   41.9700 C   0  0  0  0  0  0  0  0  0  0  0  0
   20.3600    2.1000   41.3500 O   0  0  0  0  0  0  0  0  0  0  0  0
   22.2500    1.4400   42.3000 N   0  0  0  0  0  0  0  0  0  0  0  0
   22.7600    0.8900   42.9700 H   0  0  0  0  0  0  0  0  0  0  0  0
   22.9800    2.6600   42.0100 C   0  0  0  0  0  0  0  0  0  0  0  0
   22.4700    3.2400   41.2400 H   0  0  0  0  0  0  0  0  0  0  0  0
   22.9900    3.6300   43.1900 C   0  0  0  0  0  0  0  0  0  0  0  0
   23.3400    3.0000   44.0100 H   0  0  0  0  0  0  0  0  0  0  0  0
   23.8700    4.8200   42.8700 C   0  0  0  0  0  0  0  0  0  0  0  0
   23.2800    5.5700   42.3400 H   0  0  0  0  0  0  0  0  0  0  0  0
   24.1000    5.1600   43.8800 H   0  0  0  0  0  0  0  0  0  0  0  0
   24.8500    4.5500   42.4600 H   0  0  0  0  0  0  0  0  0  0  0  0
   21.6100    4.0600   43.6600 C   0  0  0  0  0  0  0  0  0  0  0  0
   20.9600    3.2100   43.8800 H   0  0  0  0  0  0  0  0  0  0  0  0
   21.1500    4.7000   42.9100 H   0  0  0  0  0  0  0  0  0  0  0  0
   21.6000    4.8100   44.9900 C   0  0  0  0  0  0  0  0  0  0  0  0
   20.5500    5.0600   45.0800 H   0  0  0  0  0  0  0  0  0  0  0  0
   21.8200    4.1800   45.8600 H   0  0  0  0  0  0  0  0  0  0  0  0
   22.2000    5.7200   44.9500 H   0  0  0  0  0  0  0  0  0  0  0  0
   24.3400    2.2300   41.4700 C   0  0  0  0  0  0  0  0  0  0  0  0
   25.0700    1.6400   42.2600 O   0  0  0  0  0  0  0  0  0  0  0  0
   14.1620    5.5820   40.0700 H   0  0  0  0  0  0  0  0  0  0  0  0
   12.0320    8.3330   45.5860 H   0  0  0  0  0  0  0  0  0  0  0  0
   26.6620   15.3350   57.9180 H   0  0  0  0  0  0  0  0  0  0  0  0
   27.3110   14.8250   49.2610 H   0  0  0  0  0  0  0  0  0  0  0  0
   28.1700    9.8480   45.3120 H   0  0  0  0  0  0  0  0  0  0  0  0
   30.0780    7.6890   44.1680 H   0  0  0  0  0  0  0  0  0  0  0  0
   26.2450    2.5050   45.3580 H   0  0  0  0  0  0  0  0  0  0  0  0
   24.4690   -1.1400   45.9300 H   0  0  0  0  0  0  0  0  0  0  0  0
   21.0760   -2.1620   42.3310 H   0  0  0  0  0  0  0  0  0  0  0  0
   24.5370    2.2300   40.3880 H   0  0  0  0  0  0  0  0  0  0  0  0
  1  2  1  0  0  0  0
  1  3  1  0  0  0  0
  3  4  1  0  0  0  0
  3  5  1  0  0  0  0
  5  6  1  0  0  0  0
  5  7  1  0  0  0  0
  5  8  1  0  0  0  0
  8  9  4  0  0  0  0
  9 10  1  0  0  0  0
  9 11  4  0  0  0  0
 11 12  1  0  0  0  0
 11 13  4  0  0  0  0
 13 14  1  0  0  0  0
 13 15  4  0  0  0  0
 15 16  1  0  0  0  0
  8 17  4  0  0  0  0
 15 17  4  0  0  0  0
 17 18  1  0  0  0  0
  3 19  1  0  0  0  0
 19 20  2  0  0  0  0
 19 21  4  0  0  0  0
 21 22  1  0  0  0  0
 21 23  1  0  0  0  0
 23 24  1  0  0  0  0
 23 25  1  0  0  0  0
 25 26  1  0  0  0  0
 25 27  1  0  0  0  0
 25 28  1  0  0  0  0
 28 29  4  0  0  0  0
 28 30  4  0  0  0  0
 23 31  1  0  0  0  0
 31 32  2  0  0  0  0
 33 34  1  0  0  0  0
 33 35  1  0  0  0  0
 35 36  1  0  0  0  0
 35 37  1  0  0  0  0
 37 38  1  0  0  0  0
 37 39  1  0  0  0  0
 37 40  1  0  0  0  0
 40 41  1  0  0  0  0
 40 42  1  0  0  0  0
 40 43  1  0  0  0  0
 43 44  2  0  0  0  0
 43 45  4  0  0  0  0
 45 46  1  0  0  0  0
 45 47  1  0  0  0  0
 35 48  1  0  0  0  0
 48 49  2  0  0  0  0
 48 50  4  0  0  0  0
 50 51  1  0  0  0  0
 50 52  1  0  0  0  0
 52 53  1  0  0  0  0
 52 54  1  0  0  0  0
 54 55  1  0  0  0  0
 54 56  1  0  0  0  0
 54 57  1  0  0  0  0
 57 58  1  0  0  0  0
 57 59  1  0  0  0  0
 57 60  1  0  0  0  0
 60 61  4  0  0  0  0
 60 62  4  0  0  0  0
 52 63  1  0  0  0  0
 63 64  2  0  0  0  0
 63 65  4  0  0  0  0
 65 66  1  0  0  0  0
 65 67  1  0  0  0  0
 67 68  1  0  0  0  0
 67 69  1  0  0  0  0
 69 70  1  0  0  0  0
 69 71  1  0  0  0  0
 71 72  1  0  0  0  0
 71 73  1  0  0  0  0
 71 74  1  0  0  0  0
 69 75  1  0  0  0  0
 75 76  1  0  0  0  0
 75 77  1  0  0  0  0
 75 78  1  0  0  0  0
 67 79  1  0  0  0  0
 79 80  2  0  0  0  0
 79 81  4  0  0  0  0
 81 82  1  0  0  0  0
 81 83  1  0  0  0  0
 83 84  1  0  0  0  0
 83 85  1  0  0  0  0
 85 86  1  0  0  0  0
 85 87  1  0  0  0  0
 87 88  1  0  0  0  0
 87 89  1  0  0  0  0
 87 90  1  0  0  0  0
 85 91  1  0  0  0  0
 91 92  1  0  0  0  0
 91 93  1  0  0  0  0
 91 94  1  0  0  0  0
 94 95  1  0  0  0  0
 94 96  1  0  0  0  0
 94 97  1  0  0  0  0
 83 98  1  0  0  0  0
 98 99  2  0  0  0  0
100101  1  0  0  0  0
100102  1  0  0  0  0
102103  1  0  0  0  0
102104  1  0  0  0  0
104105  1  0  0  0  0
104106  1  0  0  0  0
104107  1  0  0  0  0
107108  4  0  0  0  0
108109  1  0  0  0  0
108110  4  0  0  0  0
110111  1  0  0  0  0
110112  4  0  0  0  0
112113  1  0  0  0  0
113114  1  0  0  0  0
112115  4  0  0  0  0
115116  1  0  0  0  0
107117  4  0  0  0  0
115117  4  0  0  0  0
117118  1  0  0  0  0
102119  1  0  0  0  0
119120  2  0  0  0  0
121122  1  0  0  0  0
121123  1  0  0  0  0
123124  1  0  0  0  0
123125  1  0  0  0  0
125126  1  0  0  0  0
125127  1  0  0  0  0
125128  1  0  0  0  0
128129  4  0  0  0  0
129130  2  0  0  0  0
130131  1  0  0  0  0
130132  4  0  0  0  0
132133  1  0  0  0  0
128134  2  0  0  0  0
132134  4  0  0  0  0
134135  1  0  0  0  0
123136  1  0  0  0  0
136137  2  0  0  0  0
138139  1  0  0  0  0
138140  1  0  0  0  0
140141  1  0  0  0  0
140142  1  0  0  0  0
142143  1  0  0  0  0
142144  1  0  0  0  0
144145  1  0  0  0  0
144146  1  0  0  0  0
144147  1  0  0  0  0
142148  1  0  0  0  0
148149  1  0  0  0  0
148150  1  0  0  0  0
148151  1  0  0  0  0
151152  1  0  0  0  0
151153  1  0  0  0  0
151154  1  0  0  0  0
140155  1  0  0  0  0
155156  2  0  0  0  0
155157  4  0  0  0  0
157158  1  0  0  0  0
157159  1  0  0  0  0
159160  1  0  0  0  0
159161  1  0  0  0  0
161162  1  0  0  0  0
161163  1  0  0  0  0
163164  1  0  0  0  0
163165  1  0  0  0  0
163166  1  0  0  0  0
161167  1  0  0  0  0
167168  1  0  0  0  0
167169  1  0  0  0  0
167170  1  0  0  0  0
170171  1  0  0  0  0
170172  1  0  0  0  0
170173  1  0  0  0  0
159174  1  0  0  0  0
174175  2  0  0  0  0
  1176  1  0  0  0  0
 31177  1  0  0  0  0
 33178  1  0  0  0  0
 98179  1  0  0  0  0
100180  1  0  0  0  0
119181  1  0  0  0  0
121182  1  0  0  0  0
136183  1  0  0  0  0
138184  1  0  0  0  0
174185  1  0  0  0  0
M  CHG  1   1  -2
M  END
