 xtb: 6.7.1 (edcfbbe)
          01052609073D

104103  0     0  0            999 V2000
   14.8600   10.8100   50.4300 N   0  0  0  0  0  0  0  0  0  0  0  0
   15.3500   11.6400   50.1400 H   0  0  0  0  0  0  0  0  0  0  0  0
   15.0600   10.1900   51.7300 C   0  0  0  0  0  0  0  0  0  0  0  0
   14.5000    9.2600   51.7300 H   0  0  0  0  0  0  0  0  0  0  0  0
   16.4700    9.7100   52.0500 C   0  0  0  0  0  0  0  0  0  0  0  0
   16.9300    9.1000   51.2800 H   0  0  0  0  0  0  0  0  0  0  0  0
   16.4100    9.0100   52.8900 H   0  0  0  0  0  0  0  0  0  0  0  0
   17.4700   10.7600   52.4900 C   0  0  0  0  0  0  0  0  0  0  0  0
   18.4400   11.2900   51.6300 C   0  0  0  0  0  0  0  0  0  0  0  0
   18.7000   10.7500   50.7300 H   0  0  0  0  0  0  0  0  0  0  0  0
   19.4100   12.2000   52.0500 C   0  0  0  0  0  0  0  0  0  0  0  0
   20.1500   12.5400   51.3400 H   0  0  0  0  0  0  0  0  0  0  0  0
   19.3600   12.7000   53.3500 C   0  0  0  0  0  0  0  0  0  0  0  0
   20.1800   13.3000   53.7200 H   0  0  0  0  0  0  0  0  0  0  0  0
   18.3900   12.2100   54.2300 C   0  0  0  0  0  0  0  0  0  0  0  0
   18.5000   12.3900   55.2900 H   0  0  0  0  0  0  0  0  0  0  0  0
   17.4900   11.2200   53.8100 C   0  0  0  0  0  0  0  0  0  0  0  0
   16.8700   10.7700   54.5700 H   0  0  0  0  0  0  0  0  0  0  0  0
   14.4000   10.9800   52.8500 C   0  0  0  0  0  0  0  0  0  0  0  0
   13.7000   10.4000   53.6700 O   0  0  0  0  0  0  0  0  0  0  0  0
   26.9600   10.3000   56.5000 N   0  0  0  0  0  0  0  0  0  0  0  0
   26.1700   10.3700   55.8800 H   0  0  0  0  0  0  0  0  0  0  0  0
   26.8300    9.1900   57.4200 C   0  0  0  0  0  0  0  0  0  0  0  0
   27.1300    9.4200   58.4400 H   0  0  0  0  0  0  0  0  0  0  0  0
   25.3500    8.8100   57.5200 C   0  0  0  0  0  0  0  0  0  0  0  0
   25.2900    7.9400   58.1600 H   0  0  0  0  0  0  0  0  0  0  0  0
   25.1000    8.4300   56.5300 H   0  0  0  0  0  0  0  0  0  0  0  0
   24.4200    9.9200   57.9600 C   0  0  0  0  0  0  0  0  0  0  0  0
   24.2700   10.2100   59.3200 C   0  0  0  0  0  0  0  0  0  0  0  0
   24.8300    9.7100   60.1000 H   0  0  0  0  0  0  0  0  0  0  0  0
   23.4300   11.2400   59.7500 C   0  0  0  0  0  0  0  0  0  0  0  0
   23.3100   11.4200   60.8100 H   0  0  0  0  0  0  0  0  0  0  0  0
   22.7800   12.0600   58.8100 C   0  0  0  0  0  0  0  0  0  0  0  0
   21.9600   13.1000   59.1400 O   0  0  0  0  0  0  0  0  0  0  0  0
   22.2300   13.3200   60.0400 H   0  0  0  0  0  0  0  0  0  0  0  0
   23.0000   11.8000   57.4400 C   0  0  0  0  0  0  0  0  0  0  0  0
   22.5300   12.3700   56.6500 H   0  0  0  0  0  0  0  0  0  0  0  0
   23.7700   10.7200   57.0100 C   0  0  0  0  0  0  0  0  0  0  0  0
   23.8700   10.4900   55.9600 H   0  0  0  0  0  0  0  0  0  0  0  0
   27.6900    7.9500   57.2300 C   0  0  0  0  0  0  0  0  0  0  0  0
   27.7100    6.9800   57.9900 O   0  0  0  0  0  0  0  0  0  0  0  0
   22.1900    4.6900   58.5800 N   0  0  0  0  0  0  0  0  0  0  0  0
   22.0700    4.6500   57.5800 H   0  0  0  0  0  0  0  0  0  0  0  0
   21.1100    4.4100   59.5100 C   0  0  0  0  0  0  0  0  0  0  0  0
   21.4700    3.7600   60.3000 H   0  0  0  0  0  0  0  0  0  0  0  0
   20.7900    5.7000   60.2500 C   0  0  0  0  0  0  0  0  0  0  0  0
   20.4700    6.5000   59.5800 H   0  0  0  0  0  0  0  0  0  0  0  0
   21.7100    6.1300   60.6400 H   0  0  0  0  0  0  0  0  0  0  0  0
   19.8700    5.4800   61.4300 C   0  0  0  0  0  0  0  0  0  0  0  0
   20.3000    5.0200   62.6700 N   0  0  0  0  0  0  0  0  0  0  0  0
   19.1900    4.9700   63.4100 C   0  0  0  0  0  0  0  0  0  0  0  0
   19.1000    4.5500   64.4000 H   0  0  0  0  0  0  0  0  0  0  0  0
   18.1300    5.3900   62.7000 N   0  0  0  0  0  0  0  0  0  0  0  0
   17.2100    5.5000   63.0900 H   0  0  0  0  0  0  0  0  0  0  0  0
   18.5300    5.7400   61.4300 C   0  0  0  0  0  0  0  0  0  0  0  0
   17.8300    5.8800   60.6100 H   0  0  0  0  0  0  0  0  0  0  0  0
   19.8400    3.8900   58.8500 C   0  0  0  0  0  0  0  0  0  0  0  0
   19.3300    4.5400   57.9500 O   0  0  0  0  0  0  0  0  0  0  0  0
   16.3700    4.4100   56.0400 N   0  0  0  0  0  0  0  0  0  0  0  0
   17.2000    4.0400   56.4600 H   0  0  0  0  0  0  0  0  0  0  0  0
   16.4100    5.7300   55.4500 C   0  0  0  0  0  0  0  0  0  0  0  0
   15.6400    5.6800   54.6800 H   0  0  0  0  0  0  0  0  0  0  0  0
   15.9400    6.8000   56.4500 C   0  0  0  0  0  0  0  0  0  0  0  0
   14.9500    6.5600   56.8400 H   0  0  0  0  0  0  0  0  0  0  0  0
   16.9500    6.9400   57.5800 C   0  0  0  0  0  0  0  0  0  0  0  0
   17.1500    5.9700   58.0300 H   0  0  0  0  0  0  0  0  0  0  0  0
   17.8700    7.3800   57.2000 H   0  0  0  0  0  0  0  0  0  0  0  0
   16.5200    7.5400   58.3900 H   0  0  0  0  0  0  0  0  0  0  0  0
   15.6600    8.1700   55.8500 C   0  0  0  0  0  0  0  0  0  0  0  0
   14.9000    8.0800   55.0800 H   0  0  0  0  0  0  0  0  0  0  0  0
   16.5600    8.5200   55.3400 H   0  0  0  0  0  0  0  0  0  0  0  0
   15.3000    9.2500   56.8700 C   0  0  0  0  0  0  0  0  0  0  0  0
   14.5100    8.7400   57.4200 H   0  0  0  0  0  0  0  0  0  0  0  0
   16.1200    9.5500   57.5200 H   0  0  0  0  0  0  0  0  0  0  0  0
   14.9100   10.1100   56.3300 H   0  0  0  0  0  0  0  0  0  0  0  0
   17.6900    6.1200   54.7300 C   0  0  0  0  0  0  0  0  0  0  0  0
   17.5700    6.5800   53.6000 O   0  0  0  0  0  0  0  0  0  0  0  0
   18.8900    5.7900   55.2100 N   0  0  0  0  0  0  0  0  0  0  0  0
   18.9100    5.3000   56.0900 H   0  0  0  0  0  0  0  0  0  0  0  0
   20.2100    6.0700   54.6500 C   0  0  0  0  0  0  0  0  0  0  0  0
   20.1300    6.4900   53.6500 H   0  0  0  0  0  0  0  0  0  0  0  0
   20.9500    7.1300   55.4500 C   0  0  0  0  0  0  0  0  0  0  0  0
   20.9500    6.9500   56.5200 H   0  0  0  0  0  0  0  0  0  0  0  0
   22.4100    7.2000   55.0000 C   0  0  0  0  0  0  0  0  0  0  0  0
   22.9200    6.3200   55.3900 H   0  0  0  0  0  0  0  0  0  0  0  0
   22.4200    7.3700   53.9300 H   0  0  0  0  0  0  0  0  0  0  0  0
   22.9700    7.9900   55.5000 H   0  0  0  0  0  0  0  0  0  0  0  0
   20.2900    8.4700   55.1400 C   0  0  0  0  0  0  0  0  0  0  0  0
   19.2500    8.3800   55.4700 H   0  0  0  0  0  0  0  0  0  0  0  0
   20.2800    8.5800   54.0600 H   0  0  0  0  0  0  0  0  0  0  0  0
   20.7600    9.7100   55.9000 C   0  0  0  0  0  0  0  0  0  0  0  0
   21.7100   10.0700   55.4800 H   0  0  0  0  0  0  0  0  0  0  0  0
   20.0000   10.4800   55.7800 H   0  0  0  0  0  0  0  0  0  0  0  0
   20.8900    9.4200   56.9400 H   0  0  0  0  0  0  0  0  0  0  0  0
   20.9600    4.7600   54.5000 C   0  0  0  0  0  0  0  0  0  0  0  0
   21.3400    4.1800   55.5200 O   0  0  0  0  0  0  0  0  0  0  0  0
   14.2850   10.4090   49.7030 H   0  0  0  0  0  0  0  0  0  0  0  0
   14.3830   12.0770   52.7760 H   0  0  0  0  0  0  0  0  0  0  0  0
   27.6850   11.0030   56.4850 H   0  0  0  0  0  0  0  0  0  0  0  0
   28.4700    8.0240   56.4580 H   0  0  0  0  0  0  0  0  0  0  0  0
   23.1680    4.7280   58.8300 H   0  0  0  0  0  0  0  0  0  0  0  0
   19.5440    2.8640   59.1130 H   0  0  0  0  0  0  0  0  0  0  0  0
   15.5620    3.8060   55.9870 H   0  0  0  0  0  0  0  0  0  0  0  0
   21.0830    4.3650   53.4810 H   0  0  0  0  0  0  0  0  0  0  0  0
  1  2  1  0  0  0  0
  1  3  1  0  0  0  0
  3  4  1  0  0  0  0
  3  5  1  0  0  0  0
  5  6  1  0  0  0  0
  5  7  1  0  0  0  0
  5  8  1  0  0  0  0
  8  9  4  0  0  0  0
  9 10  1  0  0  0  0
  9 11  4  0  0  0  0
 11 12  1  0  0  0  0
 11 13  4  0  0  0  0
 13 14  1  0  0  0  0
 13 15  4  0  0  0  0
 15 16  1  0  0  0  0
  8 17  4  0  0  0  0
 15 17  4  0  0  0  0
 17 18  1  0  0  0  0
  3 19  1  0  0  0  0
 19 20  2  0  0  0  0
 21 22  1  0  0  0  0
 21 23  1  0  0  0  0
 23 24  1  0  0  0  0
 23 25  1  0  0  0  0
 25 26  1  0  0  0  0
 25 27  1  0  0  0  0
 25 28  1  0  0  0  0
 28 29  4  0  0  0  0
 29 30  1  0  0  0  0
 29 31  4  0  0  0  0
 31 32  1  0  0  0  0
 31 33  4  0  0  0  0
 33 34  1  0  0  0  0
 34 35  1  0  0  0  0
 33 36  4  0  0  0  0
 36 37  1  0  0  0  0
 28 38  4  0  0  0  0
 36 38  4  0  0  0  0
 38 39  1  0  0  0  0
 23 40  1  0  0  0  0
 40 41  2  0  0  0  0
 42 43  1  0  0  0  0
 42 44  1  0  0  0  0
 44 45  1  0  0  0  0
 44 46  1  0  0  0  0
 46 47  1  0  0  0  0
 46 48  1  0  0  0  0
 46 49  1  0  0  0  0
 49 50  4  0  0  0  0
 50 51  2  0  0  0  0
 51 52  1  0  0  0  0
 51 53  4  0  0  0  0
 53 54  1  0  0  0  0
 49 55  2  0  0  0  0
 53 55  1  0  0  0  0
 55 56  1  0  0  0  0
 44 57  1  0  0  0  0
 57 58  2  0  0  0  0
 59 60  1  0  0  0  0
 59 61  1  0  0  0  0
 61 62  1  0  0  0  0
 61 63  1  0  0  0  0
 63 64  1  0  0  0  0
 63 65  1  0  0  0  0
 65 66  1  0  0  0  0
 65 67  1  0  0  0  0
 65 68  1  0  0  0  0
 63 69  1  0  0  0  0
 69 70  1  0  0  0  0
 69 71  1  0  0  0  0
 69 72  1  0  0  0  0
 72 73  1  0  0  0  0
 72 74  1  0  0  0  0
 72 75  1  0  0  0  0
 61 76  1  0  0  0  0
 76 77  2  0  0  0  0
 76 78  4  0  0  0  0
 78 79  1  0  0  0  0
 78 80  1  0  0  0  0
 80 81  1  0  0  0  0
 80 82  1  0  0  0  0
 82 83  1  0  0  0  0
 82 84  1  0  0  0  0
 84 85  1  0  0  0  0
 84 86  1  0  0  0  0
 84 87  1  0  0  0  0
 82 88  1  0  0  0  0
 88 89  1  0  0  0  0
 88 90  1  0  0  0  0
 88 91  1  0  0  0  0
 91 92  1  0  0  0  0
 91 93  1  0  0  0  0
 91 94  1  0  0  0  0
 80 95  1  0  0  0  0
 95 96  2  0  0  0  0
  1 97  1  0  0  0  0
 19 98  1  0  0  0  0
 21 99  1  0  0  0  0
 40100  1  0  0  0  0
 42101  1  0  0  0  0
 57102  1  0  0  0  0
 59103  1  0  0  0  0
 95104  1  0  0  0  0
M  END
