 xtb: 6.7.1 (edcfbbe)
          01052609073D

238236  0     0  0            999 V2000
   15.3100    8.1800   43.4900 N   0  0  0  0  0  0  0  0  0  0  0  0
   15.4800    9.1600   43.3500 H   0  0  0  0  0  0  0  0  0  0  0  0
   16.0600    7.5500   44.5700 C   0  0  0  0  0  0  0  0  0  0  0  0
   15.7200    6.5200   44.5800 H   0  0  0  0  0  0  0  0  0  0  0  0
   17.5600    7.4900   44.3400 C   0  0  0  0  0  0  0  0  0  0  0  0
   17.7400    7.2000   43.3100 H   0  0  0  0  0  0  0  0  0  0  0  0
   18.0200    6.6800   44.9000 H   0  0  0  0  0  0  0  0  0  0  0  0
   18.3200    8.7800   44.5400 C   0  0  0  0  0  0  0  0  0  0  0  0
   18.7900    9.3800   43.3700 C   0  0  0  0  0  0  0  0  0  0  0  0
   18.5000    9.0400   42.3800 H   0  0  0  0  0  0  0  0  0  0  0  0
   19.4700   10.6000   43.4500 C   0  0  0  0  0  0  0  0  0  0  0  0
   19.8800   11.0700   42.5700 H   0  0  0  0  0  0  0  0  0  0  0  0
   19.8700   11.1100   44.6900 C   0  0  0  0  0  0  0  0  0  0  0  0
   20.5700   11.9200   44.7900 H   0  0  0  0  0  0  0  0  0  0  0  0
   19.4900   10.4100   45.8500 C   0  0  0  0  0  0  0  0  0  0  0  0
   19.9500   10.7700   46.7600 H   0  0  0  0  0  0  0  0  0  0  0  0
   18.6900    9.2700   45.8000 C   0  0  0  0  0  0  0  0  0  0  0  0
   18.3900    8.7100   46.6800 H   0  0  0  0  0  0  0  0  0  0  0  0
   15.8100    8.0500   45.9800 C   0  0  0  0  0  0  0  0  0  0  0  0
   16.0000    7.3500   46.9800 O   0  0  0  0  0  0  0  0  0  0  0  0
   15.2600    9.2400   46.2100 N   0  0  0  0  0  0  0  0  0  0  0  0
   15.1800    9.8300   45.3900 H   0  0  0  0  0  0  0  0  0  0  0  0
   14.7600    9.6900   47.4900 C   0  0  0  0  0  0  0  0  0  0  0  0
   14.2200    8.8300   47.8900 H   0  0  0  0  0  0  0  0  0  0  0  0
   15.8400   10.1100   48.4900 C   0  0  0  0  0  0  0  0  0  0  0  0
   16.3200   11.0100   48.1300 H   0  0  0  0  0  0  0  0  0  0  0  0
   16.6500    9.3800   48.5500 H   0  0  0  0  0  0  0  0  0  0  0  0
   15.2600   10.4000   49.8700 C   0  0  0  0  0  0  0  0  0  0  0  0
   14.2800    9.7100   50.2400 O   0  0  0  0  0  0  0  0  0  0  0  0
   15.6300   11.3800   50.5400 O   0  0  0  0  0  0  0  0  0  0  0  0
   13.7600   10.8200   47.2900 C   0  0  0  0  0  0  0  0  0  0  0  0
   13.8300   11.5000   46.2700 O   0  0  0  0  0  0  0  0  0  0  0  0
   12.3500   19.5500   54.4500 N   0  0  0  0  0  0  0  0  0  0  0  0
   12.1900   20.2000   53.6900 H   0  0  0  0  0  0  0  0  0  0  0  0
   13.6800   19.2300   54.9300 C   0  0  0  0  0  0  0  0  0  0  0  0
   13.5500   18.7100   55.8800 H   0  0  0  0  0  0  0  0  0  0  0  0
   14.3700   18.3300   53.9100 C   0  0  0  0  0  0  0  0  0  0  0  0
   14.4800   18.9700   53.0300 H   0  0  0  0  0  0  0  0  0  0  0  0
   13.6900   17.5400   53.6100 H   0  0  0  0  0  0  0  0  0  0  0  0
   15.7600   17.9100   54.3300 C   0  0  0  0  0  0  0  0  0  0  0  0
   16.9000   18.5900   53.8900 C   0  0  0  0  0  0  0  0  0  0  0  0
   16.9300   19.4900   53.2900 H   0  0  0  0  0  0  0  0  0  0  0  0
   18.1300   18.1700   54.4300 C   0  0  0  0  0  0  0  0  0  0  0  0
   19.0500   18.6200   54.1000 H   0  0  0  0  0  0  0  0  0  0  0  0
   18.3100   17.1000   55.3200 C   0  0  0  0  0  0  0  0  0  0  0  0
   19.2900   16.8300   55.6800 H   0  0  0  0  0  0  0  0  0  0  0  0
   17.1600   16.4000   55.7000 C   0  0  0  0  0  0  0  0  0  0  0  0
   17.2600   15.5500   56.3700 H   0  0  0  0  0  0  0  0  0  0  0  0
   15.9300   16.7900   55.1500 C   0  0  0  0  0  0  0  0  0  0  0  0
   15.0600   16.2100   55.4300 H   0  0  0  0  0  0  0  0  0  0  0  0
   14.5600   20.4200   55.2900 C   0  0  0  0  0  0  0  0  0  0  0  0
   14.6800   21.4200   54.5700 O   0  0  0  0  0  0  0  0  0  0  0  0
   28.4100   20.9500   55.4200 N   0  0  0  0  0  0  0  0  0  0  0  0
   28.0900   21.5800   54.6900 H   0  0  0  0  0  0  0  0  0  0  0  0
   28.4600   19.5800   54.9400 C   0  0  0  0  0  0  0  0  0  0  0  0
   28.3300   19.5600   53.8600 H   0  0  0  0  0  0  0  0  0  0  0  0
   29.8200   18.9400   55.2000 C   0  0  0  0  0  0  0  0  0  0  0  0
   29.7700   17.8900   54.8900 H   0  0  0  0  0  0  0  0  0  0  0  0
   30.0800   18.8800   56.2500 H   0  0  0  0  0  0  0  0  0  0  0  0
   31.0100   19.5300   54.4500 C   0  0  0  0  0  0  0  0  0  0  0  0
   30.8600   19.4500   53.3800 H   0  0  0  0  0  0  0  0  0  0  0  0
   31.9300   18.9600   54.5600 H   0  0  0  0  0  0  0  0  0  0  0  0
   31.3200   20.9600   54.8800 C   0  0  0  0  0  0  0  0  0  0  0  0
   32.2000   21.1700   55.7100 O   0  0  0  0  0  0  0  0  0  0  0  0
   30.7200   22.0200   54.3400 N   0  0  0  0  0  0  0  0  0  0  0  0
   29.9500   21.9700   53.6800 H   0  0  0  0  0  0  0  0  0  0  0  0
   31.0300   22.9400   54.6000 H   0  0  0  0  0  0  0  0  0  0  0  0
   27.3400   18.7700   55.5800 C   0  0  0  0  0  0  0  0  0  0  0  0
   27.5500   17.5900   55.8400 O   0  0  0  0  0  0  0  0  0  0  0  0
   26.1200   19.3000   55.6700 N   0  0  0  0  0  0  0  0  0  0  0  0
   25.9700   20.2500   55.3800 H   0  0  0  0  0  0  0  0  0  0  0  0
   24.9100   18.5600   55.9800 C   0  0  0  0  0  0  0  0  0  0  0  0
   25.0700   17.6100   56.4900 H   0  0  0  0  0  0  0  0  0  0  0  0
   23.9700   19.4100   56.8200 C   0  0  0  0  0  0  0  0  0  0  0  0
   23.0000   18.9200   56.8800 H   0  0  0  0  0  0  0  0  0  0  0  0
   23.8100   20.4000   56.4000 H   0  0  0  0  0  0  0  0  0  0  0  0
   24.4900   19.7200   58.2200 C   0  0  0  0  0  0  0  0  0  0  0  0
   25.2700   20.4700   58.2800 H   0  0  0  0  0  0  0  0  0  0  0  0
   24.8600   18.7400   58.4900 H   0  0  0  0  0  0  0  0  0  0  0  0
   23.3800   20.0400   59.2200 C   0  0  0  0  0  0  0  0  0  0  0  0
   23.6800   19.9800   60.4300 O   0  0  0  0  0  0  0  0  0  0  0  0
   22.2600   20.4000   58.7800 O   0  0  0  0  0  0  0  0  0  0  0  0
   24.1700   18.0900   54.7300 C   0  0  0  0  0  0  0  0  0  0  0  0
   23.1500   17.4100   54.8200 O   0  0  0  0  0  0  0  0  0  0  0  0
   24.5800   18.6100   53.5700 N   0  0  0  0  0  0  0  0  0  0  0  0
   25.3700   19.2400   53.6600 H   0  0  0  0  0  0  0  0  0  0  0  0
   24.1500   18.2900   52.2300 C   0  0  0  0  0  0  0  0  0  0  0  0
   23.7800   17.2700   52.3200 H   0  0  0  0  0  0  0  0  0  0  0  0
   23.0100   19.1600   51.7200 C   0  0  0  0  0  0  0  0  0  0  0  0
   22.7800   18.9700   50.6700 H   0  0  0  0  0  0  0  0  0  0  0  0
   21.7100   19.1600   52.5300 C   0  0  0  0  0  0  0  0  0  0  0  0
   22.0000   19.5600   53.5000 H   0  0  0  0  0  0  0  0  0  0  0  0
   20.9700   19.8200   52.0700 H   0  0  0  0  0  0  0  0  0  0  0  0
   21.3800   18.1400   52.7100 H   0  0  0  0  0  0  0  0  0  0  0  0
   23.4700   20.6200   51.7100 C   0  0  0  0  0  0  0  0  0  0  0  0
   23.7000   20.9500   52.7200 H   0  0  0  0  0  0  0  0  0  0  0  0
   24.3700   20.6600   51.1000 H   0  0  0  0  0  0  0  0  0  0  0  0
   22.6600   21.1500   51.2000 H   0  0  0  0  0  0  0  0  0  0  0  0
   25.2700   18.2700   51.2000 C   0  0  0  0  0  0  0  0  0  0  0  0
   26.3400   18.7900   51.4900 O   0  0  0  0  0  0  0  0  0  0  0  0
   24.9700   17.6900   50.0400 N   0  0  0  0  0  0  0  0  0  0  0  0
   24.0900   17.1800   50.0200 H   0  0  0  0  0  0  0  0  0  0  0  0
   25.9100   17.4900   48.9500 C   0  0  0  0  0  0  0  0  0  0  0  0
   26.7700   16.9900   49.4100 H   0  0  0  0  0  0  0  0  0  0  0  0
   25.2900   16.6400   47.8600 C   0  0  0  0  0  0  0  0  0  0  0  0
   25.8900   16.5200   46.9600 H   0  0  0  0  0  0  0  0  0  0  0  0
   25.0700   15.2300   48.4200 C   0  0  0  0  0  0  0  0  0  0  0  0
   25.9900   14.8400   48.8700 H   0  0  0  0  0  0  0  0  0  0  0  0
   24.2600   15.3400   49.1400 H   0  0  0  0  0  0  0  0  0  0  0  0
   24.6700   14.5500   47.6800 H   0  0  0  0  0  0  0  0  0  0  0  0
   24.0200   17.2200   47.2400 C   0  0  0  0  0  0  0  0  0  0  0  0
   24.1800   18.2600   46.9800 H   0  0  0  0  0  0  0  0  0  0  0  0
   23.2400   17.1600   48.0000 H   0  0  0  0  0  0  0  0  0  0  0  0
   23.5700   16.5000   45.9600 C   0  0  0  0  0  0  0  0  0  0  0  0
   24.4300   16.4500   45.2900 H   0  0  0  0  0  0  0  0  0  0  0  0
   23.2100   15.4900   46.1200 H   0  0  0  0  0  0  0  0  0  0  0  0
   22.7500   17.0400   45.5000 H   0  0  0  0  0  0  0  0  0  0  0  0
   26.4000   18.7900   48.3200 C   0  0  0  0  0  0  0  0  0  0  0  0
   25.8000   19.8500   48.3700 O   0  0  0  0  0  0  0  0  0  0  0  0
   27.6100   18.7000   47.7400 N   0  0  0  0  0  0  0  0  0  0  0  0
   28.0000   17.7700   47.7200 H   0  0  0  0  0  0  0  0  0  0  0  0
   28.2100   19.8500   47.1000 C   0  0  0  0  0  0  0  0  0  0  0  0
   28.3600   20.6000   47.8700 H   0  0  0  0  0  0  0  0  0  0  0  0
   29.5900   19.4200   46.6000 C   0  0  0  0  0  0  0  0  0  0  0  0
   29.4400   18.5100   46.0300 H   0  0  0  0  0  0  0  0  0  0  0  0
   30.0700   19.1000   47.5200 H   0  0  0  0  0  0  0  0  0  0  0  0
   30.5500   20.4100   45.9500 C   0  0  0  0  0  0  0  0  0  0  0  0
   30.9900   21.0000   46.7600 H   0  0  0  0  0  0  0  0  0  0  0  0
   30.1000   21.1100   45.2400 H   0  0  0  0  0  0  0  0  0  0  0  0
   31.6400   19.6400   45.2200 C   0  0  0  0  0  0  0  0  0  0  0  0
   31.1800   19.1400   44.3700 H   0  0  0  0  0  0  0  0  0  0  0  0
   31.9700   18.8900   45.9500 H   0  0  0  0  0  0  0  0  0  0  0  0
   32.7600   20.4400   44.7300 N   0  0  0  0  0  0  0  0  0  0  0  0
   32.7400   21.4200   44.9800 H   0  0  0  0  0  0  0  0  0  0  0  0
   33.7700   20.0200   43.9600 C   0  0  0  0  0  0  0  0  0  0  0  0
   33.8100   18.7400   43.5700 N   0  0  0  0  0  0  0  0  0  0  0  0
   33.0500   18.1100   43.7700 H   0  0  0  0  0  0  0  0  0  0  0  0
   34.5100   18.4300   42.9200 H   0  0  0  0  0  0  0  0  0  0  0  0
   34.5700   20.9100   43.3400 N   0  0  0  0  0  0  0  0  0  0  0  0
   34.3800   21.8900   43.4800 H   0  0  0  0  0  0  0  0  0  0  0  0
   35.0500   20.5600   42.5300 H   0  0  0  0  0  0  0  0  0  0  0  0
   27.3800   20.5300   46.0300 C   0  0  0  0  0  0  0  0  0  0  0  0
   27.2600   21.7500   46.0900 O   0  0  0  0  0  0  0  0  0  0  0  0
   27.1000   11.7800   45.3100 N   0  0  0  0  0  0  0  0  0  0  0  0
   26.1300   11.8500   45.0500 H   0  0  0  0  0  0  0  0  0  0  0  0
   27.5000   10.6100   46.0700 C   0  0  0  0  0  0  0  0  0  0  0  0
   27.8900   10.9500   47.0300 H   0  0  0  0  0  0  0  0  0  0  0  0
   26.2500    9.8000   46.4300 C   0  0  0  0  0  0  0  0  0  0  0  0
   26.4100    8.9200   47.0400 H   0  0  0  0  0  0  0  0  0  0  0  0
   25.8800    9.3400   45.5200 H   0  0  0  0  0  0  0  0  0  0  0  0
   25.0700   10.5700   46.9800 C   0  0  0  0  0  0  0  0  0  0  0  0
   25.0500   10.9500   48.3300 C   0  0  0  0  0  0  0  0  0  0  0  0
   25.8200   10.5300   48.9500 H   0  0  0  0  0  0  0  0  0  0  0  0
   24.0300   11.7300   48.8900 C   0  0  0  0  0  0  0  0  0  0  0  0
   23.9400   11.9800   49.9300 H   0  0  0  0  0  0  0  0  0  0  0  0
   22.9800   12.1600   48.0500 C   0  0  0  0  0  0  0  0  0  0  0  0
   22.0500   13.0100   48.5700 O   0  0  0  0  0  0  0  0  0  0  0  0
   22.4100   13.4600   49.3300 H   0  0  0  0  0  0  0  0  0  0  0  0
   22.9800   11.7100   46.7100 C   0  0  0  0  0  0  0  0  0  0  0  0
   22.1500   12.0600   46.1200 H   0  0  0  0  0  0  0  0  0  0  0  0
   23.9400   10.8300   46.2000 C   0  0  0  0  0  0  0  0  0  0  0  0
   23.9000   10.5100   45.1700 H   0  0  0  0  0  0  0  0  0  0  0  0
   28.5900    9.7700   45.4300 C   0  0  0  0  0  0  0  0  0  0  0  0
   28.9800    8.7700   46.0200 O   0  0  0  0  0  0  0  0  0  0  0  0
   27.3200    6.1700   46.0900 N   0  0  0  0  0  0  0  0  0  0  0  0
   27.5900    7.1300   46.2700 H   0  0  0  0  0  0  0  0  0  0  0  0
   25.9100    6.0100   45.7900 C   0  0  0  0  0  0  0  0  0  0  0  0
   25.8100    5.4300   44.8700 H   0  0  0  0  0  0  0  0  0  0  0  0
   25.5000    7.0200   45.7200 H   0  0  0  0  0  0  0  0  0  0  0  0
   25.2400    5.2900   46.9500 C   0  0  0  0  0  0  0  0  0  0  0  0
   25.2100    5.7900   48.0700 O   0  0  0  0  0  0  0  0  0  0  0  0
   24.5400    4.2000   46.6300 N   0  0  0  0  0  0  0  0  0  0  0  0
   24.7100    3.7100   45.7600 H   0  0  0  0  0  0  0  0  0  0  0  0
   23.8900    3.3400   47.6000 C   0  0  0  0  0  0  0  0  0  0  0  0
   24.5000    3.0800   48.4600 H   0  0  0  0  0  0  0  0  0  0  0  0
   22.6700    3.9700   48.2700 C   0  0  0  0  0  0  0  0  0  0  0  0
   21.8100    3.8200   47.6200 H   0  0  0  0  0  0  0  0  0  0  0  0
   22.9000    5.0200   48.4200 H   0  0  0  0  0  0  0  0  0  0  0  0
   22.3700    3.2100   49.5300 C   0  0  0  0  0  0  0  0  0  0  0  0
   23.0800    3.1900   50.7200 N   0  0  0  0  0  0  0  0  0  0  0  0
   22.4800    2.3300   51.5400 C   0  0  0  0  0  0  0  0  0  0  0  0
   22.7800    2.1200   52.5600 H   0  0  0  0  0  0  0  0  0  0  0  0
   21.4100    1.7900   50.9300 N   0  0  0  0  0  0  0  0  0  0  0  0
   20.8500    1.0000   51.2500 H   0  0  0  0  0  0  0  0  0  0  0  0
   21.3300    2.3200   49.6600 C   0  0  0  0  0  0  0  0  0  0  0  0
   20.6200    2.0300   48.9000 H   0  0  0  0  0  0  0  0  0  0  0  0
   23.4300    2.0400   46.9500 C   0  0  0  0  0  0  0  0  0  0  0  0
   22.6400    2.0900   46.0100 O   0  0  0  0  0  0  0  0  0  0  0  0
   20.0900    0.9900   44.4900 N   0  0  0  0  0  0  0  0  0  0  0  0
   21.0500    1.0400   44.8200 H   0  0  0  0  0  0  0  0  0  0  0  0
   19.3200    2.2000   44.2200 C   0  0  0  0  0  0  0  0  0  0  0  0
   18.7700    1.9000   43.3200 H   0  0  0  0  0  0  0  0  0  0  0  0
   18.5200    2.6200   45.4500 C   0  0  0  0  0  0  0  0  0  0  0  0
   17.8900    1.7400   45.5800 H   0  0  0  0  0  0  0  0  0  0  0  0
   19.3000    2.8700   46.7300 C   0  0  0  0  0  0  0  0  0  0  0  0
   18.6900    2.9400   47.6300 H   0  0  0  0  0  0  0  0  0  0  0  0
   19.9800    2.0200   46.8700 H   0  0  0  0  0  0  0  0  0  0  0  0
   19.9000    3.7300   46.4500 H   0  0  0  0  0  0  0  0  0  0  0  0
   17.5900    3.7700   45.1000 C   0  0  0  0  0  0  0  0  0  0  0  0
   17.0400    3.5300   44.1900 H   0  0  0  0  0  0  0  0  0  0  0  0
   18.0000    4.7700   44.9400 H   0  0  0  0  0  0  0  0  0  0  0  0
   16.5400    4.0000   46.1900 C   0  0  0  0  0  0  0  0  0  0  0  0
   16.2100    3.0400   46.6000 H   0  0  0  0  0  0  0  0  0  0  0  0
   16.8300    4.6800   46.9900 H   0  0  0  0  0  0  0  0  0  0  0  0
   15.6600    4.4200   45.7000 H   0  0  0  0  0  0  0  0  0  0  0  0
   20.1500    3.2900   43.5400 C   0  0  0  0  0  0  0  0  0  0  0  0
   19.6200    3.9700   42.6700 O   0  0  0  0  0  0  0  0  0  0  0  0
   21.4100    3.5400   43.9000 N   0  0  0  0  0  0  0  0  0  0  0  0
   21.8500    2.8000   44.4300 H   0  0  0  0  0  0  0  0  0  0  0  0
   22.1900    4.5700   43.2500 C   0  0  0  0  0  0  0  0  0  0  0  0
   21.6500    5.0200   42.4200 H   0  0  0  0  0  0  0  0  0  0  0  0
   22.3100    5.7400   44.2400 C   0  0  0  0  0  0  0  0  0  0  0  0
   22.8700    5.4700   45.1300 H   0  0  0  0  0  0  0  0  0  0  0  0
   23.1400    6.8500   43.6100 C   0  0  0  0  0  0  0  0  0  0  0  0
   22.5500    7.2400   42.7800 H   0  0  0  0  0  0  0  0  0  0  0  0
   23.3800    7.6100   44.3500 H   0  0  0  0  0  0  0  0  0  0  0  0
   24.0600    6.4900   43.1500 H   0  0  0  0  0  0  0  0  0  0  0  0
   20.9600    6.3500   44.5800 C   0  0  0  0  0  0  0  0  0  0  0  0
   20.0900    5.6800   44.6000 H   0  0  0  0  0  0  0  0  0  0  0  0
   20.6400    7.1800   43.9500 H   0  0  0  0  0  0  0  0  0  0  0  0
   21.0000    6.7600   46.0500 C   0  0  0  0  0  0  0  0  0  0  0  0
   20.0700    7.2000   46.4000 H   0  0  0  0  0  0  0  0  0  0  0  0
   21.1400    5.8400   46.6200 H   0  0  0  0  0  0  0  0  0  0  0  0
   21.8800    7.3900   46.2000 H   0  0  0  0  0  0  0  0  0  0  0  0
   23.4900    3.9600   42.7600 C   0  0  0  0  0  0  0  0  0  0  0  0
   24.3800    3.6900   43.5600 O   0  0  0  0  0  0  0  0  0  0  0  0
   14.6060    7.7110   42.9380 H   0  0  0  0  0  0  0  0  0  0  0  0
   12.9940   11.1330   48.0150 H   0  0  0  0  0  0  0  0  0  0  0  0
   11.5010   19.2240   54.8900 H   0  0  0  0  0  0  0  0  0  0  0  0
   15.2450   20.2880   56.1400 H   0  0  0  0  0  0  0  0  0  0  0  0
   28.4710   21.3140   56.3600 H   0  0  0  0  0  0  0  0  0  0  0  0
   26.7560   19.9140   45.3650 H   0  0  0  0  0  0  0  0  0  0  0  0
   27.6040   12.6530   45.2420 H   0  0  0  0  0  0  0  0  0  0  0  0
   28.9930   10.1640   44.4850 H   0  0  0  0  0  0  0  0  0  0  0  0
   27.9050    5.3650   46.2650 H   0  0  0  0  0  0  0  0  0  0  0  0
   23.7660    1.0800   47.3680 H   0  0  0  0  0  0  0  0  0  0  0  0
   19.7160    0.0520   44.4600 H   0  0  0  0  0  0  0  0  0  0  0  0
   23.7040    3.9110   41.6820 H   0  0  0  0  0  0  0  0  0  0  0  0
  1  2  1  0  0  0  0
  1  3  1  0  0  0  0
  3  4  1  0  0  0  0
  3  5  1  0  0  0  0
  5  6  1  0  0  0  0
  5  7  1  0  0  0  0
  5  8  1  0  0  0  0
  8  9  4  0  0  0  0
  9 10  1  0  0  0  0
  9 11  4  0  0  0  0
 11 12  1  0  0  0  0
 11 13  4  0  0  0  0
 13 14  1  0  0  0  0
 13 15  4  0  0  0  0
 15 16  1  0  0  0  0
  8 17  4  0  0  0  0
 15 17  4  0  0  0  0
 17 18  1  0  0  0  0
  3 19  1  0  0  0  0
 19 20  2  0  0  0  0
 19 21  4  0  0  0  0
 21 22  1  0  0  0  0
 21 23  1  0  0  0  0
 23 24  1  0  0  0  0
 23 25  1  0  0  0  0
 25 26  1  0  0  0  0
 25 27  1  0  0  0  0
 25 28  1  0  0  0  0
 28 29  4  0  0  0  0
 28 30  4  0  0  0  0
 23 31  1  0  0  0  0
 31 32  2  0  0  0  0
 33 34  1  0  0  0  0
 33 35  1  0  0  0  0
 35 36  1  0  0  0  0
 35 37  1  0  0  0  0
 37 38  1  0  0  0  0
 37 39  1  0  0  0  0
 37 40  1  0  0  0  0
 40 41  4  0  0  0  0
 41 42  1  0  0  0  0
 41 43  4  0  0  0  0
 43 44  1  0  0  0  0
 43 45  4  0  0  0  0
 45 46  1  0  0  0  0
 45 47  4  0  0  0  0
 47 48  1  0  0  0  0
 40 49  4  0  0  0  0
 47 49  4  0  0  0  0
 49 50  1  0  0  0  0
 35 51  1  0  0  0  0
 51 52  2  0  0  0  0
 53 54  1  0  0  0  0
 53 55  1  0  0  0  0
 55 56  1  0  0  0  0
 55 57  1  0  0  0  0
 57 58  1  0  0  0  0
 57 59  1  0  0  0  0
 57 60  1  0  0  0  0
 60 61  1  0  0  0  0
 60 62  1  0  0  0  0
 60 63  1  0  0  0  0
 63 64  2  0  0  0  0
 63 65  4  0  0  0  0
 65 66  1  0  0  0  0
 65 67  1  0  0  0  0
 55 68  1  0  0  0  0
 68 69  2  0  0  0  0
 68 70  4  0  0  0  0
 70 71  1  0  0  0  0
 70 72  1  0  0  0  0
 72 73  1  0  0  0  0
 72 74  1  0  0  0  0
 74 75  1  0  0  0  0
 74 76  1  0  0  0  0
 74 77  1  0  0  0  0
 77 78  1  0  0  0  0
 77 79  1  0  0  0  0
 77 80  1  0  0  0  0
 80 81  4  0  0  0  0
 80 82  4  0  0  0  0
 72 83  1  0  0  0  0
 83 84  2  0  0  0  0
 83 85  4  0  0  0  0
 85 86  1  0  0  0  0
 85 87  1  0  0  0  0
 87 88  1  0  0  0  0
 87 89  1  0  0  0  0
 89 90  1  0  0  0  0
 89 91  1  0  0  0  0
 91 92  1  0  0  0  0
 91 93  1  0  0  0  0
 91 94  1  0  0  0  0
 89 95  1  0  0  0  0
 95 96  1  0  0  0  0
 95 97  1  0  0  0  0
 95 98  1  0  0  0  0
 87 99  1  0  0  0  0
 99100  2  0  0  0  0
 99101  4  0  0  0  0
101102  1  0  0  0  0
101103  1  0  0  0  0
103104  1  0  0  0  0
103105  1  0  0  0  0
105106  1  0  0  0  0
105107  1  0  0  0  0
107108  1  0  0  0  0
107109  1  0  0  0  0
107110  1  0  0  0  0
105111  1  0  0  0  0
111112  1  0  0  0  0
111113  1  0  0  0  0
111114  1  0  0  0  0
114115  1  0  0  0  0
114116  1  0  0  0  0
114117  1  0  0  0  0
103118  1  0  0  0  0
118119  2  0  0  0  0
118120  4  0  0  0  0
120121  1  0  0  0  0
120122  1  0  0  0  0
122123  1  0  0  0  0
122124  1  0  0  0  0
124125  1  0  0  0  0
124126  1  0  0  0  0
124127  1  0  0  0  0
127128  1  0  0  0  0
127129  1  0  0  0  0
127130  1  0  0  0  0
130131  1  0  0  0  0
130132  1  0  0  0  0
130133  1  0  0  0  0
133134  1  0  0  0  0
133135  4  0  0  0  0
135136  4  0  0  0  0
136137  1  0  0  0  0
136138  1  0  0  0  0
135139  4  0  0  0  0
139140  1  0  0  0  0
139141  1  0  0  0  0
122142  1  0  0  0  0
142143  2  0  0  0  0
144145  1  0  0  0  0
144146  1  0  0  0  0
146147  1  0  0  0  0
146148  1  0  0  0  0
148149  1  0  0  0  0
148150  1  0  0  0  0
148151  1  0  0  0  0
151152  4  0  0  0  0
152153  1  0  0  0  0
152154  4  0  0  0  0
154155  1  0  0  0  0
154156  4  0  0  0  0
156157  1  0  0  0  0
157158  1  0  0  0  0
156159  4  0  0  0  0
159160  1  0  0  0  0
151161  4  0  0  0  0
159161  4  0  0  0  0
161162  1  0  0  0  0
146163  1  0  0  0  0
163164  2  0  0  0  0
165166  1  0  0  0  0
165167  1  0  0  0  0
167168  1  0  0  0  0
167169  1  0  0  0  0
167170  1  0  0  0  0
170171  2  0  0  0  0
170172  4  0  0  0  0
172173  1  0  0  0  0
172174  1  0  0  0  0
174175  1  0  0  0  0
174176  1  0  0  0  0
176177  1  0  0  0  0
176178  1  0  0  0  0
176179  1  0  0  0  0
179180  4  0  0  0  0
180181  2  0  0  0  0
181182  1  0  0  0  0
181183  4  0  0  0  0
183184  1  0  0  0  0
179185  2  0  0  0  0
183185  4  0  0  0  0
185186  1  0  0  0  0
174187  1  0  0  0  0
187188  2  0  0  0  0
189190  1  0  0  0  0
189191  1  0  0  0  0
191192  1  0  0  0  0
191193  1  0  0  0  0
193194  1  0  0  0  0
193195  1  0  0  0  0
195196  1  0  0  0  0
195197  1  0  0  0  0
195198  1  0  0  0  0
193199  1  0  0  0  0
199200  1  0  0  0  0
199201  1  0  0  0  0
199202  1  0  0  0  0
202203  1  0  0  0  0
202204  1  0  0  0  0
202205  1  0  0  0  0
191206  1  0  0  0  0
206207  2  0  0  0  0
206208  4  0  0  0  0
208209  1  0  0  0  0
208210  1  0  0  0  0
210211  1  0  0  0  0
210212  1  0  0  0  0
212213  1  0  0  0  0
212214  1  0  0  0  0
214215  1  0  0  0  0
214216  1  0  0  0  0
214217  1  0  0  0  0
212218  1  0  0  0  0
218219  1  0  0  0  0
218220  1  0  0  0  0
218221  1  0  0  0  0
221222  1  0  0  0  0
221223  1  0  0  0  0
221224  1  0  0  0  0
210225  1  0  0  0  0
225226  2  0  0  0  0
  1227  1  0  0  0  0
 31228  1  0  0  0  0
 33229  1  0  0  0  0
 51230  1  0  0  0  0
 53231  1  0  0  0  0
142232  1  0  0  0  0
144233  1  0  0  0  0
163234  1  0  0  0  0
165235  1  0  0  0  0
187236  1  0  0  0  0
189237  1  0  0  0  0
225238  1  0  0  0  0
M  CHG  1   1  -1
M  END
