 xtb: 6.7.1 (edcfbbe)
          01052609063D

166164  0     0  0            999 V2000
   33.7000   33.5300   47.0100 N   0  0  0  0  0  0  0  0  0  0  0  0
   33.1300   34.1800   46.4800 H   0  0  0  0  0  0  0  0  0  0  0  0
   33.6200   32.1800   46.4800 C   0  0  0  0  0  0  0  0  0  0  0  0
   32.8100   32.3200   45.7700 H   0  0  0  0  0  0  0  0  0  0  0  0
   34.9700   31.7700   45.9100 C   0  0  0  0  0  0  0  0  0  0  0  0
   34.9000   30.8300   45.3600 H   0  0  0  0  0  0  0  0  0  0  0  0
   35.5800   31.6900   46.8100 H   0  0  0  0  0  0  0  0  0  0  0  0
   35.6900   32.8500   45.1000 C   0  0  0  0  0  0  0  0  0  0  0  0
   36.6600   32.4400   44.8300 H   0  0  0  0  0  0  0  0  0  0  0  0
   36.0200   33.7100   45.6800 H   0  0  0  0  0  0  0  0  0  0  0  0
   34.8400   33.2800   43.9100 C   0  0  0  0  0  0  0  0  0  0  0  0
   34.0900   32.5400   43.2700 O   0  0  0  0  0  0  0  0  0  0  0  0
   35.1200   34.4800   43.3900 N   0  0  0  0  0  0  0  0  0  0  0  0
   35.8100   35.0900   43.8000 H   0  0  0  0  0  0  0  0  0  0  0  0
   34.5000   34.8700   42.6900 H   0  0  0  0  0  0  0  0  0  0  0  0
   32.9500   31.2000   47.4300 C   0  0  0  0  0  0  0  0  0  0  0  0
   33.3300   30.0400   47.5800 O   0  0  0  0  0  0  0  0  0  0  0  0
   31.8000   31.5900   47.9900 N   0  0  0  0  0  0  0  0  0  0  0  0
   31.5200   32.5500   47.9200 H   0  0  0  0  0  0  0  0  0  0  0  0
   31.0300   30.7000   48.8400 C   0  0  0  0  0  0  0  0  0  0  0  0
   31.6600   30.3100   49.6400 H   0  0  0  0  0  0  0  0  0  0  0  0
   30.0800   31.5800   49.6600 C   0  0  0  0  0  0  0  0  0  0  0  0
   29.4100   30.9200   50.2200 H   0  0  0  0  0  0  0  0  0  0  0  0
   29.4500   32.2100   49.0300 H   0  0  0  0  0  0  0  0  0  0  0  0
   30.7400   32.5400   50.6500 C   0  0  0  0  0  0  0  0  0  0  0  0
   31.0600   33.4100   50.0800 H   0  0  0  0  0  0  0  0  0  0  0  0
   31.6400   32.1500   51.1400 H   0  0  0  0  0  0  0  0  0  0  0  0
   29.8500   32.9600   51.8100 C   0  0  0  0  0  0  0  0  0  0  0  0
   30.3400   33.4700   52.8400 O   0  0  0  0  0  0  0  0  0  0  0  0
   28.6200   32.8000   51.6300 O   0  0  0  0  0  0  0  0  0  0  0  0
   30.3500   29.5300   48.1500 C   0  0  0  0  0  0  0  0  0  0  0  0
   29.8100   28.6600   48.8200 O   0  0  0  0  0  0  0  0  0  0  0  0
   30.2400   29.6000   46.8200 N   0  0  0  0  0  0  0  0  0  0  0  0
   30.9500   30.1500   46.3500 H   0  0  0  0  0  0  0  0  0  0  0  0
   29.5200   28.7900   45.8500 C   0  0  0  0  0  0  0  0  0  0  0  0
   29.2700   27.8000   46.2300 H   0  0  0  0  0  0  0  0  0  0  0  0
   28.1300   29.3300   45.5500 C   0  0  0  0  0  0  0  0  0  0  0  0
   27.7400   28.8000   44.6800 H   0  0  0  0  0  0  0  0  0  0  0  0
   27.1300   29.0700   46.6800 C   0  0  0  0  0  0  0  0  0  0  0  0
   26.1100   29.4000   46.4600 H   0  0  0  0  0  0  0  0  0  0  0  0
   27.1200   27.9800   46.7400 H   0  0  0  0  0  0  0  0  0  0  0  0
   27.4500   29.5100   47.6300 H   0  0  0  0  0  0  0  0  0  0  0  0
   28.1600   30.8200   45.2100 C   0  0  0  0  0  0  0  0  0  0  0  0
   28.6200   31.3900   46.0200 H   0  0  0  0  0  0  0  0  0  0  0  0
   28.6900   30.9900   44.2700 H   0  0  0  0  0  0  0  0  0  0  0  0
   27.1400   31.1600   45.0600 H   0  0  0  0  0  0  0  0  0  0  0  0
   30.2100   28.7100   44.4900 C   0  0  0  0  0  0  0  0  0  0  0  0
   31.0500   29.5300   44.1400 O   0  0  0  0  0  0  0  0  0  0  0  0
   29.7600   27.7400   43.6900 N   0  0  0  0  0  0  0  0  0  0  0  0
   29.0800   27.1200   44.1000 H   0  0  0  0  0  0  0  0  0  0  0  0
   30.4100   27.4200   42.4400 C   0  0  0  0  0  0  0  0  0  0  0  0
   31.4700   27.2200   42.6100 H   0  0  0  0  0  0  0  0  0  0  0  0
   29.7900   26.1600   41.8500 C   0  0  0  0  0  0  0  0  0  0  0  0
   30.3100   26.0800   40.8900 H   0  0  0  0  0  0  0  0  0  0  0  0
   30.1500   24.9000   42.6400 C   0  0  0  0  0  0  0  0  0  0  0  0
   29.5100   24.0400   42.4800 H   0  0  0  0  0  0  0  0  0  0  0  0
   31.1800   24.6000   42.4900 H   0  0  0  0  0  0  0  0  0  0  0  0
   30.0400   25.1200   43.7100 H   0  0  0  0  0  0  0  0  0  0  0  0
   28.3000   26.2400   41.5200 C   0  0  0  0  0  0  0  0  0  0  0  0
   28.0400   27.1300   40.9500 H   0  0  0  0  0  0  0  0  0  0  0  0
   27.8500   26.1200   42.5100 H   0  0  0  0  0  0  0  0  0  0  0  0
   27.6700   25.1000   40.7300 C   0  0  0  0  0  0  0  0  0  0  0  0
   27.8900   24.1100   41.1400 H   0  0  0  0  0  0  0  0  0  0  0  0
   26.5800   25.1000   40.7500 H   0  0  0  0  0  0  0  0  0  0  0  0
   28.1200   24.8400   39.7700 H   0  0  0  0  0  0  0  0  0  0  0  0
   30.3500   28.5000   41.3700 C   0  0  0  0  0  0  0  0  0  0  0  0
   29.5100   29.3900   41.4000 O   0  0  0  0  0  0  0  0  0  0  0  0
   31.4200   28.5800   40.5600 N   0  0  0  0  0  0  0  0  0  0  0  0
   32.0600   27.8000   40.6200 H   0  0  0  0  0  0  0  0  0  0  0  0
   31.8100   29.7600   39.8300 C   0  0  0  0  0  0  0  0  0  0  0  0
   32.2100   30.5000   40.5300 H   0  0  0  0  0  0  0  0  0  0  0  0
   33.1100   29.3900   39.1200 C   0  0  0  0  0  0  0  0  0  0  0  0
   33.4300   30.1300   38.3900 H   0  0  0  0  0  0  0  0  0  0  0  0
   32.8500   28.6400   38.3700 H   0  0  0  0  0  0  0  0  0  0  0  0
   34.2600   28.9900   40.0300 C   0  0  0  0  0  0  0  0  0  0  0  0
   34.0100   28.4700   40.9500 H   0  0  0  0  0  0  0  0  0  0  0  0
   34.7200   29.9200   40.3600 H   0  0  0  0  0  0  0  0  0  0  0  0
   35.3400   28.1500   39.3500 C   0  0  0  0  0  0  0  0  0  0  0  0
   35.0000   27.3300   38.7200 H   0  0  0  0  0  0  0  0  0  0  0  0
   35.9600   27.8400   40.2000 H   0  0  0  0  0  0  0  0  0  0  0  0
   36.1600   29.0700   38.5600 N   0  0  0  0  0  0  0  0  0  0  0  0
   36.2200   30.0200   38.8800 H   0  0  0  0  0  0  0  0  0  0  0  0
   37.0000   28.8100   37.5500 C   0  0  0  0  0  0  0  0  0  0  0  0
   37.0500   27.6300   36.9200 N   0  0  0  0  0  0  0  0  0  0  0  0
   36.4800   26.8400   37.1900 H   0  0  0  0  0  0  0  0  0  0  0  0
   37.6800   27.4600   36.1400 H   0  0  0  0  0  0  0  0  0  0  0  0
   37.7500   29.7800   37.0200 N   0  0  0  0  0  0  0  0  0  0  0  0
   37.6300   30.7300   37.3400 H   0  0  0  0  0  0  0  0  0  0  0  0
   38.3100   29.5500   36.2100 H   0  0  0  0  0  0  0  0  0  0  0  0
   30.7600   30.3200   38.8900 C   0  0  0  0  0  0  0  0  0  0  0  0
   30.6200   31.5300   38.7000 O   0  0  0  0  0  0  0  0  0  0  0  0
   31.6400   24.4400   37.8900 N   0  0  0  0  0  0  0  0  0  0  0  0
   32.0000   23.8100   37.1900 H   0  0  0  0  0  0  0  0  0  0  0  0
   30.7200   23.7700   38.7900 C   0  0  0  0  0  0  0  0  0  0  0  0
   30.3200   24.5300   39.4600 H   0  0  0  0  0  0  0  0  0  0  0  0
   29.5900   23.1700   37.9600 C   0  0  0  0  0  0  0  0  0  0  0  0
   29.1000   23.9100   37.3300 H   0  0  0  0  0  0  0  0  0  0  0  0
   30.0900   22.4600   37.3100 H   0  0  0  0  0  0  0  0  0  0  0  0
   28.8100   22.6900   38.5500 H   0  0  0  0  0  0  0  0  0  0  0  0
   31.4600   22.7800   39.6800 C   0  0  0  0  0  0  0  0  0  0  0  0
   32.2100   23.2300   40.5400 O   0  0  0  0  0  0  0  0  0  0  0  0
   31.2300   21.4700   39.6300 N   0  0  0  0  0  0  0  0  0  0  0  0
   30.5700   21.1400   38.9400 H   0  0  0  0  0  0  0  0  0  0  0  0
   31.7900   20.4600   40.5100 C   0  0  0  0  0  0  0  0  0  0  0  0
   32.1500   21.0200   41.3700 H   0  0  0  0  0  0  0  0  0  0  0  0
   30.6700   19.6200   41.1300 C   0  0  0  0  0  0  0  0  0  0  0  0
   31.1400   18.8300   41.7100 H   0  0  0  0  0  0  0  0  0  0  0  0
   30.1800   19.0300   40.3600 H   0  0  0  0  0  0  0  0  0  0  0  0
   29.7000   20.3500   42.0300 C   0  0  0  0  0  0  0  0  0  0  0  0
   30.2600   20.9400   43.1600 C   0  0  0  0  0  0  0  0  0  0  0  0
   31.3300   20.9700   43.3300 H   0  0  0  0  0  0  0  0  0  0  0  0
   29.4000   21.6300   44.0200 C   0  0  0  0  0  0  0  0  0  0  0  0
   29.7400   22.1300   44.9100 H   0  0  0  0  0  0  0  0  0  0  0  0
   28.0000   21.5900   43.8000 C   0  0  0  0  0  0  0  0  0  0  0  0
   27.2200   22.0900   44.8000 O   0  0  0  0  0  0  0  0  0  0  0  0
   26.2900   22.0500   44.6000 H   0  0  0  0  0  0  0  0  0  0  0  0
   27.4500   20.8900   42.7100 C   0  0  0  0  0  0  0  0  0  0  0  0
   26.3800   20.7500   42.6400 H   0  0  0  0  0  0  0  0  0  0  0  0
   28.3300   20.4400   41.7200 C   0  0  0  0  0  0  0  0  0  0  0  0
   27.9500   19.8700   40.8900 H   0  0  0  0  0  0  0  0  0  0  0  0
   32.9500   19.7100   39.8800 C   0  0  0  0  0  0  0  0  0  0  0  0
   33.6200   18.9600   40.5800 O   0  0  0  0  0  0  0  0  0  0  0  0
   30.8400   14.5600   42.4500 N   0  0  0  0  0  0  0  0  0  0  0  0
   30.1500   14.4500   41.7200 H   0  0  0  0  0  0  0  0  0  0  0  0
   30.7600   13.8000   43.6800 C   0  0  0  0  0  0  0  0  0  0  0  0
   31.8100   13.6900   43.9800 H   0  0  0  0  0  0  0  0  0  0  0  0
   30.1900   14.6400   44.8200 C   0  0  0  0  0  0  0  0  0  0  0  0
   29.1000   14.6000   44.7900 H   0  0  0  0  0  0  0  0  0  0  0  0
   30.4100   15.7000   44.7100 H   0  0  0  0  0  0  0  0  0  0  0  0
   30.5700   14.1400   46.1800 C   0  0  0  0  0  0  0  0  0  0  0  0
   31.6700   14.5200   46.9500 N   0  0  0  0  0  0  0  0  0  0  0  0
   31.6300   13.8000   48.0800 C   0  0  0  0  0  0  0  0  0  0  0  0
   32.2600   13.7500   48.9500 H   0  0  0  0  0  0  0  0  0  0  0  0
   30.4800   13.1100   48.1400 N   0  0  0  0  0  0  0  0  0  0  0  0
   30.1000   12.5800   48.9200 H   0  0  0  0  0  0  0  0  0  0  0  0
   29.8400   13.2500   46.9300 C   0  0  0  0  0  0  0  0  0  0  0  0
   28.8700   12.8300   46.7000 H   0  0  0  0  0  0  0  0  0  0  0  0
   30.0900   12.4400   43.5700 C   0  0  0  0  0  0  0  0  0  0  0  0
   29.0800   12.3800   42.8800 O   0  0  0  0  0  0  0  0  0  0  0  0
   26.1300   11.0900   42.9800 N   0  0  0  0  0  0  0  0  0  0  0  0
   27.0900   11.2300   42.6900 H   0  0  0  0  0  0  0  0  0  0  0  0
   25.3000   12.2600   43.1900 C   0  0  0  0  0  0  0  0  0  0  0  0
   24.2800   11.9000   43.0300 H   0  0  0  0  0  0  0  0  0  0  0  0
   25.3800   12.7900   44.6200 C   0  0  0  0  0  0  0  0  0  0  0  0
   25.0900   12.0000   45.3100 H   0  0  0  0  0  0  0  0  0  0  0  0
   26.7900   13.2600   44.9600 C   0  0  0  0  0  0  0  0  0  0  0  0
   26.7100   13.5100   46.0100 H   0  0  0  0  0  0  0  0  0  0  0  0
   27.5400   12.4800   44.8800 H   0  0  0  0  0  0  0  0  0  0  0  0
   27.1000   14.1000   44.3300 H   0  0  0  0  0  0  0  0  0  0  0  0
   24.4500   13.9900   44.7600 C   0  0  0  0  0  0  0  0  0  0  0  0
   23.5200   13.8200   44.2100 H   0  0  0  0  0  0  0  0  0  0  0  0
   24.9100   14.8700   44.3200 H   0  0  0  0  0  0  0  0  0  0  0  0
   24.0700   14.2900   46.2100 C   0  0  0  0  0  0  0  0  0  0  0  0
   23.1700   14.9200   46.2500 H   0  0  0  0  0  0  0  0  0  0  0  0
   23.8100   13.3100   46.6000 H   0  0  0  0  0  0  0  0  0  0  0  0
   24.8200   14.8000   46.8200 H   0  0  0  0  0  0  0  0  0  0  0  0
   25.4500   13.2000   42.0100 C   0  0  0  0  0  0  0  0  0  0  0  0
   24.5100   13.6800   41.3700 O   0  0  0  0  0  0  0  0  0  0  0  0
   33.9790   33.8770   47.9160 H   0  0  0  0  0  0  0  0  0  0  0  0
   30.0690   29.5880   38.4460 H   0  0  0  0  0  0  0  0  0  0  0  0
   31.6100   25.4390   37.7460 H   0  0  0  0  0  0  0  0  0  0  0  0
   33.1480   19.7510   38.7990 H   0  0  0  0  0  0  0  0  0  0  0  0
   31.6480   15.1190   42.2160 H   0  0  0  0  0  0  0  0  0  0  0  0
   30.5330   11.5960   44.1190 H   0  0  0  0  0  0  0  0  0  0  0  0
   25.8520   10.1200   43.0100 H   0  0  0  0  0  0  0  0  0  0  0  0
   26.4980   13.3820   41.7290 H   0  0  0  0  0  0  0  0  0  0  0  0
  1  2  1  0  0  0  0
  1  3  1  0  0  0  0
  3  4  1  0  0  0  0
  3  5  1  0  0  0  0
  5  6  1  0  0  0  0
  5  7  1  0  0  0  0
  5  8  1  0  0  0  0
  8  9  1  0  0  0  0
  8 10  1  0  0  0  0
  8 11  1  0  0  0  0
 11 12  2  0  0  0  0
 11 13  4  0  0  0  0
 13 14  1  0  0  0  0
 13 15  1  0  0  0  0
  3 16  1  0  0  0  0
 16 17  2  0  0  0  0
 16 18  4  0  0  0  0
 18 19  1  0  0  0  0
 18 20  1  0  0  0  0
 20 21  1  0  0  0  0
 20 22  1  0  0  0  0
 22 23  1  0  0  0  0
 22 24  1  0  0  0  0
 22 25  1  0  0  0  0
 25 26  1  0  0  0  0
 25 27  1  0  0  0  0
 25 28  1  0  0  0  0
 28 29  4  0  0  0  0
 28 30  4  0  0  0  0
 20 31  1  0  0  0  0
 31 32  2  0  0  0  0
 31 33  4  0  0  0  0
 33 34  1  0  0  0  0
 33 35  1  0  0  0  0
 35 36  1  0  0  0  0
 35 37  1  0  0  0  0
 37 38  1  0  0  0  0
 37 39  1  0  0  0  0
 39 40  1  0  0  0  0
 39 41  1  0  0  0  0
 39 42  1  0  0  0  0
 37 43  1  0  0  0  0
 43 44  1  0  0  0  0
 43 45  1  0  0  0  0
 43 46  1  0  0  0  0
 35 47  1  0  0  0  0
 47 48  2  0  0  0  0
 47 49  4  0  0  0  0
 49 50  1  0  0  0  0
 49 51  1  0  0  0  0
 51 52  1  0  0  0  0
 51 53  1  0  0  0  0
 53 54  1  0  0  0  0
 53 55  1  0  0  0  0
 55 56  1  0  0  0  0
 55 57  1  0  0  0  0
 55 58  1  0  0  0  0
 53 59  1  0  0  0  0
 59 60  1  0  0  0  0
 59 61  1  0  0  0  0
 59 62  1  0  0  0  0
 62 63  1  0  0  0  0
 62 64  1  0  0  0  0
 62 65  1  0  0  0  0
 51 66  1  0  0  0  0
 66 67  2  0  0  0  0
 66 68  4  0  0  0  0
 68 69  1  0  0  0  0
 68 70  1  0  0  0  0
 70 71  1  0  0  0  0
 70 72  1  0  0  0  0
 72 73  1  0  0  0  0
 72 74  1  0  0  0  0
 72 75  1  0  0  0  0
 75 76  1  0  0  0  0
 75 77  1  0  0  0  0
 75 78  1  0  0  0  0
 78 79  1  0  0  0  0
 78 80  1  0  0  0  0
 78 81  1  0  0  0  0
 81 82  1  0  0  0  0
 81 83  4  0  0  0  0
 83 84  4  0  0  0  0
 84 85  1  0  0  0  0
 84 86  1  0  0  0  0
 83 87  4  0  0  0  0
 87 88  1  0  0  0  0
 87 89  1  0  0  0  0
 70 90  1  0  0  0  0
 90 91  2  0  0  0  0
 92 93  1  0  0  0  0
 92 94  1  0  0  0  0
 94 95  1  0  0  0  0
 94 96  1  0  0  0  0
 96 97  1  0  0  0  0
 96 98  1  0  0  0  0
 96 99  1  0  0  0  0
 94100  1  0  0  0  0
100101  2  0  0  0  0
100102  4  0  0  0  0
102103  1  0  0  0  0
102104  1  0  0  0  0
104105  1  0  0  0  0
104106  1  0  0  0  0
106107  1  0  0  0  0
106108  1  0  0  0  0
106109  1  0  0  0  0
109110  4  0  0  0  0
110111  1  0  0  0  0
110112  4  0  0  0  0
112113  1  0  0  0  0
112114  4  0  0  0  0
114115  1  0  0  0  0
115116  1  0  0  0  0
114117  4  0  0  0  0
117118  1  0  0  0  0
109119  4  0  0  0  0
117119  4  0  0  0  0
119120  1  0  0  0  0
104121  1  0  0  0  0
121122  2  0  0  0  0
123124  1  0  0  0  0
123125  1  0  0  0  0
125126  1  0  0  0  0
125127  1  0  0  0  0
127128  1  0  0  0  0
127129  1  0  0  0  0
127130  1  0  0  0  0
130131  4  0  0  0  0
131132  2  0  0  0  0
132133  1  0  0  0  0
132134  4  0  0  0  0
134135  1  0  0  0  0
130136  2  0  0  0  0
134136  4  0  0  0  0
136137  1  0  0  0  0
125138  1  0  0  0  0
138139  2  0  0  0  0
140141  1  0  0  0  0
140142  1  0  0  0  0
142143  1  0  0  0  0
142144  1  0  0  0  0
144145  1  0  0  0  0
144146  1  0  0  0  0
146147  1  0  0  0  0
146148  1  0  0  0  0
146149  1  0  0  0  0
144150  1  0  0  0  0
150151  1  0  0  0  0
150152  1  0  0  0  0
150153  1  0  0  0  0
153154  1  0  0  0  0
153155  1  0  0  0  0
153156  1  0  0  0  0
142157  1  0  0  0  0
157158  2  0  0  0  0
  1159  1  0  0  0  0
 90160  1  0  0  0  0
 92161  1  0  0  0  0
121162  1  0  0  0  0
123163  1  0  0  0  0
138164  1  0  0  0  0
140165  1  0  0  0  0
157166  1  0  0  0  0
M  END
