 xtb: 6.7.1 (edcfbbe)
          01052609073D

 59 61  0     0  0            999 V2000
   17.5500    8.1300   60.1500 C   0  0  0  0  0  0  0  0  0  0  0  0
   16.9800    9.0000   61.0500 N   0  0  0  0  0  0  0  0  0  0  0  0
   16.1900    8.7800   62.1900 C   0  0  0  0  0  0  0  0  0  0  0  0
   15.2000   10.8700   65.0900 C   0  0  0  0  0  0  0  0  0  0  0  0
   15.3400    7.5500   62.3800 C   0  0  0  0  0  0  0  0  0  0  0  0
   15.7600    6.7800   63.6100 C   0  0  0  0  0  0  0  0  0  0  0  0
   15.1000    6.9700   64.8300 C   0  0  0  0  0  0  0  0  0  0  0  0
   15.4500    6.2100   65.9500 C   0  0  0  0  0  0  0  0  0  0  0  0
   16.4600    5.2500   65.8500 C   0  0  0  0  0  0  0  0  0  0  0  0
   17.2200    5.1700   64.6800 C   0  0  0  0  0  0  0  0  0  0  0  0
   16.8700    5.9300   63.5600 C   0  0  0  0  0  0  0  0  0  0  0  0
   15.2200    9.8800   64.0600 O   0  0  0  0  0  0  0  0  0  0  0  0
   16.9200   10.9000   62.9200 O   0  0  0  0  0  0  0  0  0  0  0  0
   16.2100    9.9300   63.1300 C   0  0  0  0  0  0  0  0  0  0  0  0
   14.8900   10.2100   66.4400 C   0  0  0  0  0  0  0  0  0  0  0  0
   17.6000    9.1700   57.2000 C   0  0  0  0  0  0  0  0  0  0  0  0
   17.2200    6.9600   60.0800 O   0  0  0  0  0  0  0  0  0  0  0  0
   17.5700   10.7000   57.3500 C   0  0  0  0  0  0  0  0  0  0  0  0
   17.5800   11.3000   59.1000 S   0  0  0  0  0  0  0  0  0  0  0  0
   18.9900   10.2500   59.6400 C   0  0  0  0  0  0  0  0  0  0  0  0
   18.6900    8.7700   59.3500 C   0  0  0  0  0  0  0  0  0  0  0  0
   18.7300    8.5500   57.9000 N   0  0  0  0  0  0  0  0  0  0  0  0
   19.1200    7.0000   57.3200 S   0  0  0  0  0  0  0  0  0  0  0  0
   19.8100    7.2900   55.7000 C   0  0  0  0  0  0  0  0  0  0  0  0
   21.0100    7.9900   55.5300 C   0  0  0  0  0  0  0  0  0  0  0  0
   21.7200    7.8700   54.3300 C   0  0  0  0  0  0  0  0  0  0  0  0
   21.1000    7.3300   53.1900 C   0  0  0  0  0  0  0  0  0  0  0  0
   19.8700    6.6800   53.3000 C   0  0  0  0  0  0  0  0  0  0  0  0
   19.2800    6.6600   54.5700 C   0  0  0  0  0  0  0  0  0  0  0  0
   17.8800    6.2100   57.2600 O   0  0  0  0  0  0  0  0  0  0  0  0
   20.2600    6.4800   58.0800 O   0  0  0  0  0  0  0  0  0  0  0  0
   21.8800    7.2400   51.9000 C   0  0  0  0  0  0  0  0  0  0  0  0
   17.3400    9.9500   60.9600 H   0  0  0  0  0  0  0  0  0  0  0  0
   16.1700   11.3500   65.2500 H   0  0  0  0  0  0  0  0  0  0  0  0
   14.4900   11.6700   64.8500 H   0  0  0  0  0  0  0  0  0  0  0  0
   14.3100    7.8900   62.5500 H   0  0  0  0  0  0  0  0  0  0  0  0
   15.3200    6.8100   61.5700 H   0  0  0  0  0  0  0  0  0  0  0  0
   14.3800    7.7800   64.9000 H   0  0  0  0  0  0  0  0  0  0  0  0
   15.0200    6.4900   66.9100 H   0  0  0  0  0  0  0  0  0  0  0  0
   16.7300    4.7300   66.7700 H   0  0  0  0  0  0  0  0  0  0  0  0
   18.0500    4.4700   64.5700 H   0  0  0  0  0  0  0  0  0  0  0  0
   17.4600    5.6600   62.6900 H   0  0  0  0  0  0  0  0  0  0  0  0
   15.7500    9.6200   66.7600 H   0  0  0  0  0  0  0  0  0  0  0  0
   14.1100    9.4600   66.2600 H   0  0  0  0  0  0  0  0  0  0  0  0
   14.6200   10.8900   67.2600 H   0  0  0  0  0  0  0  0  0  0  0  0
   16.6400    8.7700   57.5600 H   0  0  0  0  0  0  0  0  0  0  0  0
   17.6900    9.0000   56.1200 H   0  0  0  0  0  0  0  0  0  0  0  0
   18.3300   11.2200   56.7500 H   0  0  0  0  0  0  0  0  0  0  0  0
   16.6400   11.0200   56.8600 H   0  0  0  0  0  0  0  0  0  0  0  0
   19.8600   10.5500   59.0400 H   0  0  0  0  0  0  0  0  0  0  0  0
   19.2500   10.4500   60.6900 H   0  0  0  0  0  0  0  0  0  0  0  0
   19.6400    8.3000   59.6500 H   0  0  0  0  0  0  0  0  0  0  0  0
   21.4300    8.3800   56.4600 H   0  0  0  0  0  0  0  0  0  0  0  0
   22.7300    8.2400   54.2400 H   0  0  0  0  0  0  0  0  0  0  0  0
   19.4400    6.1800   52.4300 H   0  0  0  0  0  0  0  0  0  0  0  0
   18.3900    6.0400   54.6600 H   0  0  0  0  0  0  0  0  0  0  0  0
   22.8800    7.7000   51.9200 H   0  0  0  0  0  0  0  0  0  0  0  0
   21.3100    7.8800   51.2100 H   0  0  0  0  0  0  0  0  0  0  0  0
   21.8800    6.2000   51.5400 H   0  0  0  0  0  0  0  0  0  0  0  0
  1  2  1  0  0  0  0
  2  3  4  0  0  0  0
  3  5  1  0  0  0  0
  5  6  1  0  0  0  0
  6  7  4  0  0  0  0
  7  8  4  0  0  0  0
  8  9  4  0  0  0  0
  9 10  4  0  0  0  0
  6 11  4  0  0  0  0
 10 11  4  0  0  0  0
  4 12  1  0  0  0  0
  3 14  1  0  0  0  0
 12 14  1  0  0  0  0
 13 14  2  0  0  0  0
  4 15  1  0  0  0  0
  1 17  2  0  0  0  0
 16 18  1  0  0  0  0
 18 19  1  0  0  0  0
 19 20  1  0  0  0  0
  1 21  1  0  0  0  0
 20 21  1  0  0  0  0
 16 22  1  0  0  0  0
 21 22  1  0  0  0  0
 22 23  1  0  0  0  0
 23 24  1  0  0  0  0
 24 25  4  0  0  0  0
 25 26  4  0  0  0  0
 26 27  4  0  0  0  0
 27 28  4  0  0  0  0
 24 29  4  0  0  0  0
 28 29  4  0  0  0  0
 23 30  2  0  0  0  0
 23 31  2  0  0  0  0
 27 32  1  0  0  0  0
  2 33  1  0  0  0  0
  4 34  1  0  0  0  0
  4 35  1  0  0  0  0
  5 36  1  0  0  0  0
  5 37  1  0  0  0  0
  7 38  1  0  0  0  0
  8 39  1  0  0  0  0
  9 40  1  0  0  0  0
 10 41  1  0  0  0  0
 11 42  1  0  0  0  0
 15 43  1  0  0  0  0
 15 44  1  0  0  0  0
 15 45  1  0  0  0  0
 16 46  1  0  0  0  0
 16 47  1  0  0  0  0
 18 48  1  0  0  0  0
 18 49  1  0  0  0  0
 20 50  1  0  0  0  0
 20 51  1  0  0  0  0
 21 52  1  0  0  0  0
 25 53  1  0  0  0  0
 26 54  1  0  0  0  0
 28 55  1  0  0  0  0
 29 56  1  0  0  0  0
 32 57  1  0  0  0  0
 32 58  1  0  0  0  0
 32 59  1  0  0  0  0
M  CHG  1   1   1
M  END
