 xtb: 6.7.1 (edcfbbe)
          01052609063D

 59 61  0     0  0            999 V2000
   31.9200   30.3200   47.5500 C   0  0  0  0  0  0  0  0  0  0  0  0
   32.8900   30.7000   48.4600 N   0  0  0  0  0  0  0  0  0  0  0  0
   33.6000   31.8900   48.6900 C   0  0  0  0  0  0  0  0  0  0  0  0
   36.7800   32.8300   50.5000 C   0  0  0  0  0  0  0  0  0  0  0  0
   33.2300   33.2400   48.1100 C   0  0  0  0  0  0  0  0  0  0  0  0
   31.9400   33.7400   48.7000 C   0  0  0  0  0  0  0  0  0  0  0  0
   31.7300   33.6400   50.0800 C   0  0  0  0  0  0  0  0  0  0  0  0
   30.5900   34.1300   50.7300 C   0  0  0  0  0  0  0  0  0  0  0  0
   29.4900   34.5500   49.9700 C   0  0  0  0  0  0  0  0  0  0  0  0
   29.6700   34.5800   48.5800 C   0  0  0  0  0  0  0  0  0  0  0  0
   30.8600   34.2000   47.9400 C   0  0  0  0  0  0  0  0  0  0  0  0
   35.5700   32.8300   49.7500 O   0  0  0  0  0  0  0  0  0  0  0  0
   34.9200   30.8000   50.3600 O   0  0  0  0  0  0  0  0  0  0  0  0
   34.7100   31.7800   49.6700 C   0  0  0  0  0  0  0  0  0  0  0  0
   37.5900   34.0700   50.0900 C   0  0  0  0  0  0  0  0  0  0  0  0
   33.8400   28.1700   46.3700 C   0  0  0  0  0  0  0  0  0  0  0  0
   31.3800   31.1000   46.7800 O   0  0  0  0  0  0  0  0  0  0  0  0
   34.4500   27.4000   47.5500 C   0  0  0  0  0  0  0  0  0  0  0  0
   33.8300   28.0100   49.1800 S   0  0  0  0  0  0  0  0  0  0  0  0
   32.0400   28.0600   48.7600 C   0  0  0  0  0  0  0  0  0  0  0  0
   31.7000   28.8100   47.4600 C   0  0  0  0  0  0  0  0  0  0  0  0
   32.3700   28.1700   46.3200 N   0  0  0  0  0  0  0  0  0  0  0  0
   31.7700   28.3700   44.7400 S   0  0  0  0  0  0  0  0  0  0  0  0
   32.2100   26.8300   43.9400 C   0  0  0  0  0  0  0  0  0  0  0  0
   31.8400   25.6800   44.6400 C   0  0  0  0  0  0  0  0  0  0  0  0
   32.3200   24.4100   44.3000 C   0  0  0  0  0  0  0  0  0  0  0  0
   33.1900   24.2900   43.2100 C   0  0  0  0  0  0  0  0  0  0  0  0
   33.3900   25.4000   42.3900 C   0  0  0  0  0  0  0  0  0  0  0  0
   32.9300   26.6800   42.7500 C   0  0  0  0  0  0  0  0  0  0  0  0
   32.3800   29.5500   44.1300 O   0  0  0  0  0  0  0  0  0  0  0  0
   30.3200   28.3600   45.0000 O   0  0  0  0  0  0  0  0  0  0  0  0
   33.9500   23.0000   43.0000 C   0  0  0  0  0  0  0  0  0  0  0  0
   33.2500   29.9300   49.0000 H   0  0  0  0  0  0  0  0  0  0  0  0
   36.6300   32.8800   51.5800 H   0  0  0  0  0  0  0  0  0  0  0  0
   37.4100   31.9600   50.2500 H   0  0  0  0  0  0  0  0  0  0  0  0
   34.0300   33.9900   48.1300 H   0  0  0  0  0  0  0  0  0  0  0  0
   33.0900   33.1700   47.0200 H   0  0  0  0  0  0  0  0  0  0  0  0
   32.4800   33.2500   50.7700 H   0  0  0  0  0  0  0  0  0  0  0  0
   30.5000   34.0400   51.8000 H   0  0  0  0  0  0  0  0  0  0  0  0
   28.5500   34.8500   50.4300 H   0  0  0  0  0  0  0  0  0  0  0  0
   28.8800   34.9500   47.9300 H   0  0  0  0  0  0  0  0  0  0  0  0
   30.9100   34.2900   46.8600 H   0  0  0  0  0  0  0  0  0  0  0  0
   38.4100   34.1200   50.8300 H   0  0  0  0  0  0  0  0  0  0  0  0
   37.1000   35.0400   50.1600 H   0  0  0  0  0  0  0  0  0  0  0  0
   37.9300   34.0400   49.0500 H   0  0  0  0  0  0  0  0  0  0  0  0
   34.1700   29.2200   46.3100 H   0  0  0  0  0  0  0  0  0  0  0  0
   34.2100   27.7000   45.4600 H   0  0  0  0  0  0  0  0  0  0  0  0
   34.2900   26.3200   47.4800 H   0  0  0  0  0  0  0  0  0  0  0  0
   35.5300   27.5900   47.6100 H   0  0  0  0  0  0  0  0  0  0  0  0
   31.6700   27.0400   48.6100 H   0  0  0  0  0  0  0  0  0  0  0  0
   31.5100   28.5000   49.6100 H   0  0  0  0  0  0  0  0  0  0  0  0
   30.6100   28.7400   47.3000 H   0  0  0  0  0  0  0  0  0  0  0  0
   31.2400   25.9100   45.5200 H   0  0  0  0  0  0  0  0  0  0  0  0
   32.0600   23.5300   44.8800 H   0  0  0  0  0  0  0  0  0  0  0  0
   34.1300   25.3300   41.6100 H   0  0  0  0  0  0  0  0  0  0  0  0
   33.2500   27.5800   42.2400 H   0  0  0  0  0  0  0  0  0  0  0  0
   34.9000   23.2600   42.5100 H   0  0  0  0  0  0  0  0  0  0  0  0
   33.3000   22.3200   42.4400 H   0  0  0  0  0  0  0  0  0  0  0  0
   34.1400   22.4800   43.9400 H   0  0  0  0  0  0  0  0  0  0  0  0
  1  2  1  0  0  0  0
  2  3  4  0  0  0  0
  3  5  1  0  0  0  0
  5  6  1  0  0  0  0
  6  7  4  0  0  0  0
  7  8  4  0  0  0  0
  8  9  4  0  0  0  0
  9 10  4  0  0  0  0
  6 11  4  0  0  0  0
 10 11  4  0  0  0  0
  4 12  1  0  0  0  0
  3 14  1  0  0  0  0
 12 14  1  0  0  0  0
 13 14  2  0  0  0  0
  4 15  1  0  0  0  0
  1 17  2  0  0  0  0
 16 18  1  0  0  0  0
 18 19  1  0  0  0  0
 19 20  1  0  0  0  0
  1 21  1  0  0  0  0
 20 21  1  0  0  0  0
 16 22  1  0  0  0  0
 21 22  1  0  0  0  0
 22 23  1  0  0  0  0
 23 24  1  0  0  0  0
 24 25  4  0  0  0  0
 25 26  4  0  0  0  0
 26 27  4  0  0  0  0
 27 28  4  0  0  0  0
 24 29  4  0  0  0  0
 28 29  4  0  0  0  0
 23 30  2  0  0  0  0
 23 31  2  0  0  0  0
 27 32  1  0  0  0  0
  2 33  1  0  0  0  0
  4 34  1  0  0  0  0
  4 35  1  0  0  0  0
  5 36  1  0  0  0  0
  5 37  1  0  0  0  0
  7 38  1  0  0  0  0
  8 39  1  0  0  0  0
  9 40  1  0  0  0  0
 10 41  1  0  0  0  0
 11 42  1  0  0  0  0
 15 43  1  0  0  0  0
 15 44  1  0  0  0  0
 15 45  1  0  0  0  0
 16 46  1  0  0  0  0
 16 47  1  0  0  0  0
 18 48  1  0  0  0  0
 18 49  1  0  0  0  0
 20 50  1  0  0  0  0
 20 51  1  0  0  0  0
 21 52  1  0  0  0  0
 25 53  1  0  0  0  0
 26 54  1  0  0  0  0
 28 55  1  0  0  0  0
 29 56  1  0  0  0  0
 32 57  1  0  0  0  0
 32 58  1  0  0  0  0
 32 59  1  0  0  0  0
M  CHG  1   1   1
M  END
