 xtb: 6.7.1 (edcfbbe)
          01052609063D

235233  0     0  0            999 V2000
   17.3900   23.9400   43.4900 N   0  0  0  0  0  0  0  0  0  0  0  0
   17.1300   23.1800   44.1000 H   0  0  0  0  0  0  0  0  0  0  0  0
   18.0400   23.5100   42.2700 C   0  0  0  0  0  0  0  0  0  0  0  0
   17.7500   24.2500   41.5300 H   0  0  0  0  0  0  0  0  0  0  0  0
   19.5500   23.6600   42.4200 C   0  0  0  0  0  0  0  0  0  0  0  0
   19.9200   24.5600   42.9200 H   0  0  0  0  0  0  0  0  0  0  0  0
   20.0000   23.7600   41.4300 H   0  0  0  0  0  0  0  0  0  0  0  0
   20.0600   22.5500   43.3100 C   0  0  0  0  0  0  0  0  0  0  0  0
   20.7100   21.5200   42.6200 C   0  0  0  0  0  0  0  0  0  0  0  0
   20.7100   21.5100   41.5400 H   0  0  0  0  0  0  0  0  0  0  0  0
   21.4500   20.5400   43.2900 C   0  0  0  0  0  0  0  0  0  0  0  0
   22.1500   19.8100   42.9000 H   0  0  0  0  0  0  0  0  0  0  0  0
   21.1600   20.2800   44.6400 C   0  0  0  0  0  0  0  0  0  0  0  0
   21.7800   19.3500   45.4100 O   0  0  0  0  0  0  0  0  0  0  0  0
   21.5500   18.4600   45.1300 H   0  0  0  0  0  0  0  0  0  0  0  0
   20.4300   21.2900   45.3000 C   0  0  0  0  0  0  0  0  0  0  0  0
   20.3200   21.1600   46.3700 H   0  0  0  0  0  0  0  0  0  0  0  0
   19.9700   22.4700   44.7000 C   0  0  0  0  0  0  0  0  0  0  0  0
   19.5500   23.2200   45.3500 H   0  0  0  0  0  0  0  0  0  0  0  0
   17.7800   22.0800   41.8200 C   0  0  0  0  0  0  0  0  0  0  0  0
   17.3700   21.1900   42.5600 O   0  0  0  0  0  0  0  0  0  0  0  0
   20.8400   14.1100   37.8400 N   0  0  0  0  0  0  0  0  0  0  0  0
   20.9200   15.1100   37.7000 H   0  0  0  0  0  0  0  0  0  0  0  0
   21.6300   13.5000   38.8900 C   0  0  0  0  0  0  0  0  0  0  0  0
   21.6100   12.4200   38.7100 H   0  0  0  0  0  0  0  0  0  0  0  0
   23.1200   13.7500   38.7300 C   0  0  0  0  0  0  0  0  0  0  0  0
   23.5100   13.1900   37.8700 H   0  0  0  0  0  0  0  0  0  0  0  0
   23.6200   13.2800   39.5800 H   0  0  0  0  0  0  0  0  0  0  0  0
   23.4900   15.2100   38.7300 C   0  0  0  0  0  0  0  0  0  0  0  0
   23.6500   15.8700   37.5100 C   0  0  0  0  0  0  0  0  0  0  0  0
   23.4800   15.3100   36.6000 H   0  0  0  0  0  0  0  0  0  0  0  0
   24.2100   17.1600   37.5200 C   0  0  0  0  0  0  0  0  0  0  0  0
   24.4700   17.5700   36.5600 H   0  0  0  0  0  0  0  0  0  0  0  0
   24.5100   17.7700   38.7400 C   0  0  0  0  0  0  0  0  0  0  0  0
   24.8100   18.8100   38.7300 H   0  0  0  0  0  0  0  0  0  0  0  0
   24.4300   17.0500   39.9300 C   0  0  0  0  0  0  0  0  0  0  0  0
   24.7800   17.5000   40.8500 H   0  0  0  0  0  0  0  0  0  0  0  0
   23.9300   15.7400   39.9600 C   0  0  0  0  0  0  0  0  0  0  0  0
   23.9000   15.2600   40.9200 H   0  0  0  0  0  0  0  0  0  0  0  0
   21.1100   13.7400   40.3000 C   0  0  0  0  0  0  0  0  0  0  0  0
   21.3100   12.8300   41.1000 O   0  0  0  0  0  0  0  0  0  0  0  0
   20.4800   14.8700   40.6300 N   0  0  0  0  0  0  0  0  0  0  0  0
   20.1200   15.4800   39.9100 H   0  0  0  0  0  0  0  0  0  0  0  0
   20.1300   15.3500   41.9600 C   0  0  0  0  0  0  0  0  0  0  0  0
   19.6100   14.5700   42.5200 H   0  0  0  0  0  0  0  0  0  0  0  0
   21.3300   15.8800   42.7400 C   0  0  0  0  0  0  0  0  0  0  0  0
   21.5900   16.9100   42.4700 H   0  0  0  0  0  0  0  0  0  0  0  0
   22.2600   15.3600   42.5500 H   0  0  0  0  0  0  0  0  0  0  0  0
   21.0600   15.8200   44.2300 C   0  0  0  0  0  0  0  0  0  0  0  0
   20.7800   14.7700   44.8500 O   0  0  0  0  0  0  0  0  0  0  0  0
   21.0000   16.9200   44.8100 O   0  0  0  0  0  0  0  0  0  0  0  0
   19.1400   16.5100   41.9000 C   0  0  0  0  0  0  0  0  0  0  0  0
   19.2100   17.2100   40.8900 O   0  0  0  0  0  0  0  0  0  0  0  0
   17.7200   24.6800   50.0900 N   0  0  0  0  0  0  0  0  0  0  0  0
   17.3900   25.0400   49.2000 H   0  0  0  0  0  0  0  0  0  0  0  0
   19.1400   24.4100   50.2300 C   0  0  0  0  0  0  0  0  0  0  0  0
   19.3800   23.7800   51.0900 H   0  0  0  0  0  0  0  0  0  0  0  0
   19.6100   23.5700   49.0500 C   0  0  0  0  0  0  0  0  0  0  0  0
   19.1500   23.8700   48.1100 H   0  0  0  0  0  0  0  0  0  0  0  0
   19.3500   22.5300   49.2600 H   0  0  0  0  0  0  0  0  0  0  0  0
   21.1100   23.4900   48.9100 C   0  0  0  0  0  0  0  0  0  0  0  0
   21.7700   23.8900   47.7400 C   0  0  0  0  0  0  0  0  0  0  0  0
   21.2200   24.2500   46.8800 H   0  0  0  0  0  0  0  0  0  0  0  0
   23.1400   23.7000   47.5600 C   0  0  0  0  0  0  0  0  0  0  0  0
   23.6700   23.9400   46.6500 H   0  0  0  0  0  0  0  0  0  0  0  0
   23.8800   23.1700   48.6300 C   0  0  0  0  0  0  0  0  0  0  0  0
   24.9600   23.2400   48.6800 H   0  0  0  0  0  0  0  0  0  0  0  0
   23.2300   22.7400   49.7900 C   0  0  0  0  0  0  0  0  0  0  0  0
   23.8700   22.2800   50.5300 H   0  0  0  0  0  0  0  0  0  0  0  0
   21.8500   22.9000   49.9400 C   0  0  0  0  0  0  0  0  0  0  0  0
   21.3900   22.4500   50.8100 H   0  0  0  0  0  0  0  0  0  0  0  0
   20.0100   25.6500   50.3400 C   0  0  0  0  0  0  0  0  0  0  0  0
   20.1600   26.4300   49.4000 O   0  0  0  0  0  0  0  0  0  0  0  0
   23.8300   27.5600   51.4100 N   0  0  0  0  0  0  0  0  0  0  0  0
   23.3900   28.4700   51.3900 H   0  0  0  0  0  0  0  0  0  0  0  0
   25.2800   27.6300   51.3800 C   0  0  0  0  0  0  0  0  0  0  0  0
   25.7400   26.9900   52.1200 H   0  0  0  0  0  0  0  0  0  0  0  0
   25.6600   26.9900   50.0400 C   0  0  0  0  0  0  0  0  0  0  0  0
   25.1600   26.0300   49.9300 H   0  0  0  0  0  0  0  0  0  0  0  0
   26.7000   26.7000   50.2200 H   0  0  0  0  0  0  0  0  0  0  0  0
   25.5600   27.8100   48.7800 C   0  0  0  0  0  0  0  0  0  0  0  0
   26.7200   28.3200   48.1800 C   0  0  0  0  0  0  0  0  0  0  0  0
   27.6700   28.0200   48.5900 H   0  0  0  0  0  0  0  0  0  0  0  0
   26.6600   29.0300   46.9800 C   0  0  0  0  0  0  0  0  0  0  0  0
   27.5100   29.5500   46.5600 H   0  0  0  0  0  0  0  0  0  0  0  0
   25.4400   29.3900   46.3900 C   0  0  0  0  0  0  0  0  0  0  0  0
   25.4600   29.9500   45.4700 H   0  0  0  0  0  0  0  0  0  0  0  0
   24.2900   28.8800   47.0200 C   0  0  0  0  0  0  0  0  0  0  0  0
   23.3600   29.1100   46.5300 H   0  0  0  0  0  0  0  0  0  0  0  0
   24.3300   28.0500   48.1400 C   0  0  0  0  0  0  0  0  0  0  0  0
   23.4100   27.5700   48.4300 H   0  0  0  0  0  0  0  0  0  0  0  0
   25.7800   29.0700   51.3500 C   0  0  0  0  0  0  0  0  0  0  0  0
   25.0100   30.0200   51.2500 O   0  0  0  0  0  0  0  0  0  0  0  0
   32.5600   27.0200   49.1200 N   0  0  0  0  0  0  0  0  0  0  0  0
   32.1200   27.9300   49.1600 H   0  0  0  0  0  0  0  0  0  0  0  0
   31.8700   25.8900   49.7100 C   0  0  0  0  0  0  0  0  0  0  0  0
   32.5300   25.1900   50.2100 H   0  0  0  0  0  0  0  0  0  0  0  0
   30.7200   26.4600   50.5500 C   0  0  0  0  0  0  0  0  0  0  0  0
   29.8900   26.5800   49.8500 H   0  0  0  0  0  0  0  0  0  0  0  0
   30.9800   27.4600   50.8900 H   0  0  0  0  0  0  0  0  0  0  0  0
   30.4800   25.5800   51.7700 C   0  0  0  0  0  0  0  0  0  0  0  0
   30.7100   24.5400   51.5400 H   0  0  0  0  0  0  0  0  0  0  0  0
   29.4300   25.5700   52.0600 H   0  0  0  0  0  0  0  0  0  0  0  0
   31.2600   25.9800   53.0200 C   0  0  0  0  0  0  0  0  0  0  0  0
   32.4900   25.7900   53.1400 O   0  0  0  0  0  0  0  0  0  0  0  0
   30.7500   26.7000   53.9000 O   0  0  0  0  0  0  0  0  0  0  0  0
   31.4000   25.0700   48.5200 C   0  0  0  0  0  0  0  0  0  0  0  0
   31.4700   23.8500   48.6400 O   0  0  0  0  0  0  0  0  0  0  0  0
   31.0300   25.6300   47.3600 N   0  0  0  0  0  0  0  0  0  0  0  0
   31.3400   26.5800   47.2100 H   0  0  0  0  0  0  0  0  0  0  0  0
   30.4200   24.9300   46.2500 C   0  0  0  0  0  0  0  0  0  0  0  0
   30.1600   23.8900   46.4100 H   0  0  0  0  0  0  0  0  0  0  0  0
   29.1300   25.6200   45.8200 C   0  0  0  0  0  0  0  0  0  0  0  0
   28.7700   25.1500   44.9000 H   0  0  0  0  0  0  0  0  0  0  0  0
   28.1100   25.3600   46.9200 C   0  0  0  0  0  0  0  0  0  0  0  0
   27.7500   24.3300   46.9000 H   0  0  0  0  0  0  0  0  0  0  0  0
   28.4700   25.6800   47.9000 H   0  0  0  0  0  0  0  0  0  0  0  0
   27.2600   26.0000   46.6700 H   0  0  0  0  0  0  0  0  0  0  0  0
   29.3800   27.1100   45.6000 C   0  0  0  0  0  0  0  0  0  0  0  0
   29.6500   27.7000   46.4800 H   0  0  0  0  0  0  0  0  0  0  0  0
   30.0900   27.2100   44.7900 H   0  0  0  0  0  0  0  0  0  0  0  0
   28.4100   27.5100   45.3000 H   0  0  0  0  0  0  0  0  0  0  0  0
   31.4400   24.8400   45.1200 C   0  0  0  0  0  0  0  0  0  0  0  0
   32.5200   25.4300   45.2200 O   0  0  0  0  0  0  0  0  0  0  0  0
   31.1900   24.0700   44.0600 N   0  0  0  0  0  0  0  0  0  0  0  0
   30.2900   23.6100   44.1100 H   0  0  0  0  0  0  0  0  0  0  0  0
   31.9300   24.1500   42.8300 C   0  0  0  0  0  0  0  0  0  0  0  0
   32.9300   23.8300   43.1300 H   0  0  0  0  0  0  0  0  0  0  0  0
   31.4400   23.1300   41.8000 C   0  0  0  0  0  0  0  0  0  0  0  0
   31.9300   23.4200   40.8700 H   0  0  0  0  0  0  0  0  0  0  0  0
   31.9900   21.7400   42.0700 C   0  0  0  0  0  0  0  0  0  0  0  0
   31.5600   21.2300   42.9300 H   0  0  0  0  0  0  0  0  0  0  0  0
   31.8600   21.2000   41.1300 H   0  0  0  0  0  0  0  0  0  0  0  0
   33.0700   21.7300   41.9300 H   0  0  0  0  0  0  0  0  0  0  0  0
   29.9400   23.1000   41.5600 C   0  0  0  0  0  0  0  0  0  0  0  0
   29.5200   24.0800   41.7800 H   0  0  0  0  0  0  0  0  0  0  0  0
   29.3500   22.4400   42.1900 H   0  0  0  0  0  0  0  0  0  0  0  0
   29.5700   22.9600   40.0800 C   0  0  0  0  0  0  0  0  0  0  0  0
   30.2100   22.2000   39.6300 H   0  0  0  0  0  0  0  0  0  0  0  0
   28.5000   22.7400   39.9900 H   0  0  0  0  0  0  0  0  0  0  0  0
   29.7700   23.9200   39.6200 H   0  0  0  0  0  0  0  0  0  0  0  0
   32.0100   25.5500   42.2300 C   0  0  0  0  0  0  0  0  0  0  0  0
   31.0000   26.2400   42.3200 O   0  0  0  0  0  0  0  0  0  0  0  0
   33.4600   19.2800   38.5400 N   0  0  0  0  0  0  0  0  0  0  0  0
   32.6200   19.0800   38.0000 H   0  0  0  0  0  0  0  0  0  0  0  0
   34.1600   18.1200   39.0400 C   0  0  0  0  0  0  0  0  0  0  0  0
   34.8400   18.5000   39.8100 H   0  0  0  0  0  0  0  0  0  0  0  0
   33.3100   17.0000   39.6300 C   0  0  0  0  0  0  0  0  0  0  0  0
   33.9500   16.2600   40.1200 H   0  0  0  0  0  0  0  0  0  0  0  0
   32.8800   16.4000   38.8200 H   0  0  0  0  0  0  0  0  0  0  0  0
   32.2500   17.4400   40.6100 C   0  0  0  0  0  0  0  0  0  0  0  0
   32.5500   17.8300   41.9200 C   0  0  0  0  0  0  0  0  0  0  0  0
   33.5400   17.5800   42.2700 H   0  0  0  0  0  0  0  0  0  0  0  0
   31.5800   18.4000   42.7600 C   0  0  0  0  0  0  0  0  0  0  0  0
   31.8100   18.7600   43.7500 H   0  0  0  0  0  0  0  0  0  0  0  0
   30.2700   18.6700   42.3000 C   0  0  0  0  0  0  0  0  0  0  0  0
   29.3200   19.3600   42.9800 O   0  0  0  0  0  0  0  0  0  0  0  0
   29.6500   19.9700   43.6400 H   0  0  0  0  0  0  0  0  0  0  0  0
   29.9600   18.0800   41.0600 C   0  0  0  0  0  0  0  0  0  0  0  0
   28.9800   18.2800   40.6400 H   0  0  0  0  0  0  0  0  0  0  0  0
   30.9100   17.4900   40.2200 C   0  0  0  0  0  0  0  0  0  0  0  0
   30.6700   17.2600   39.1900 H   0  0  0  0  0  0  0  0  0  0  0  0
   35.1700   17.5700   38.0400 C   0  0  0  0  0  0  0  0  0  0  0  0
   36.0100   16.7400   38.3700 O   0  0  0  0  0  0  0  0  0  0  0  0
   31.6900   11.8500   38.4000 N   0  0  0  0  0  0  0  0  0  0  0  0
   31.6000   11.7100   37.4100 H   0  0  0  0  0  0  0  0  0  0  0  0
   31.2300   10.8000   39.2900 C   0  0  0  0  0  0  0  0  0  0  0  0
   32.0400   10.6600   40.0100 H   0  0  0  0  0  0  0  0  0  0  0  0
   30.0000   11.2400   40.0800 C   0  0  0  0  0  0  0  0  0  0  0  0
   29.2000   11.6200   39.4400 H   0  0  0  0  0  0  0  0  0  0  0  0
   30.2700   12.0800   40.7200 H   0  0  0  0  0  0  0  0  0  0  0  0
   29.5100   10.1700   41.0200 C   0  0  0  0  0  0  0  0  0  0  0  0
   29.9800    9.8700   42.3000 N   0  0  0  0  0  0  0  0  0  0  0  0
   29.3300    8.7900   42.7300 C   0  0  0  0  0  0  0  0  0  0  0  0
   29.5800    8.2800   43.6500 H   0  0  0  0  0  0  0  0  0  0  0  0
   28.4100    8.3700   41.8400 N   0  0  0  0  0  0  0  0  0  0  0  0
   27.9100    7.5100   41.9100 H   0  0  0  0  0  0  0  0  0  0  0  0
   28.6100    9.1800   40.7400 C   0  0  0  0  0  0  0  0  0  0  0  0
   28.1100    9.1600   39.7800 H   0  0  0  0  0  0  0  0  0  0  0  0
   30.9600    9.4500   38.6500 C   0  0  0  0  0  0  0  0  0  0  0  0
   29.9400    9.2800   37.9800 O   0  0  0  0  0  0  0  0  0  0  0  0
   27.5900    7.7700   36.6500 N   0  0  0  0  0  0  0  0  0  0  0  0
   28.5300    8.0200   36.9100 H   0  0  0  0  0  0  0  0  0  0  0  0
   26.7400    8.7100   35.9500 C   0  0  0  0  0  0  0  0  0  0  0  0
   26.3400    8.1500   35.1100 H   0  0  0  0  0  0  0  0  0  0  0  0
   25.5500    9.1900   36.7700 C   0  0  0  0  0  0  0  0  0  0  0  0
   24.8600    8.3400   36.8700 H   0  0  0  0  0  0  0  0  0  0  0  0
   25.9600    9.6300   38.1600 C   0  0  0  0  0  0  0  0  0  0  0  0
   26.6800   10.4500   38.0800 H   0  0  0  0  0  0  0  0  0  0  0  0
   25.1000    9.9700   38.7400 H   0  0  0  0  0  0  0  0  0  0  0  0
   26.3900    8.7600   38.6600 H   0  0  0  0  0  0  0  0  0  0  0  0
   24.6900   10.2200   36.0500 C   0  0  0  0  0  0  0  0  0  0  0  0
   24.3300    9.7100   35.1600 H   0  0  0  0  0  0  0  0  0  0  0  0
   25.2500   11.1300   35.8300 H   0  0  0  0  0  0  0  0  0  0  0  0
   23.3600   10.5900   36.6900 C   0  0  0  0  0  0  0  0  0  0  0  0
   22.7600    9.6900   36.8000 H   0  0  0  0  0  0  0  0  0  0  0  0
   23.4100   10.9100   37.7300 H   0  0  0  0  0  0  0  0  0  0  0  0
   22.7600   11.2200   36.0300 H   0  0  0  0  0  0  0  0  0  0  0  0
   27.5000    9.8800   35.3200 C   0  0  0  0  0  0  0  0  0  0  0  0
   27.3300   10.1000   34.1200 O   0  0  0  0  0  0  0  0  0  0  0  0
   28.3100   10.6500   36.0400 N   0  0  0  0  0  0  0  0  0  0  0  0
   28.4000   10.3600   37.0100 H   0  0  0  0  0  0  0  0  0  0  0  0
   28.8400   11.9000   35.5500 C   0  0  0  0  0  0  0  0  0  0  0  0
   28.2000   12.2000   34.7200 H   0  0  0  0  0  0  0  0  0  0  0  0
   28.9200   13.0300   36.5700 C   0  0  0  0  0  0  0  0  0  0  0  0
   29.5500   12.7500   37.4100 H   0  0  0  0  0  0  0  0  0  0  0  0
   29.6200   14.2500   35.9700 C   0  0  0  0  0  0  0  0  0  0  0  0
   29.7000   15.0300   36.7300 H   0  0  0  0  0  0  0  0  0  0  0  0
   30.6500   14.0000   35.7100 H   0  0  0  0  0  0  0  0  0  0  0  0
   29.1300   14.6900   35.1000 H   0  0  0  0  0  0  0  0  0  0  0  0
   27.5800   13.4700   37.1600 C   0  0  0  0  0  0  0  0  0  0  0  0
   26.9700   12.5800   37.3000 H   0  0  0  0  0  0  0  0  0  0  0  0
   27.0200   13.9900   36.3900 H   0  0  0  0  0  0  0  0  0  0  0  0
   27.7300   14.3200   38.4200 C   0  0  0  0  0  0  0  0  0  0  0  0
   26.7500   14.5000   38.8600 H   0  0  0  0  0  0  0  0  0  0  0  0
   28.4100   13.8800   39.1600 H   0  0  0  0  0  0  0  0  0  0  0  0
   28.1600   15.2800   38.1300 H   0  0  0  0  0  0  0  0  0  0  0  0
   30.2000   11.5600   34.9400 C   0  0  0  0  0  0  0  0  0  0  0  0
   31.0600   11.1900   35.7400 O   0  0  0  0  0  0  0  0  0  0  0  0
   17.1500   24.9080   43.6480 H   0  0  0  0  0  0  0  0  0  0  0  0
   17.9530   21.9400   40.7430 H   0  0  0  0  0  0  0  0  0  0  0  0
   20.1670   13.6410   37.2500 H   0  0  0  0  0  0  0  0  0  0  0  0
   18.4630   16.6830   42.7500 H   0  0  0  0  0  0  0  0  0  0  0  0
   17.0380   24.7260   50.8330 H   0  0  0  0  0  0  0  0  0  0  0  0
   20.6590   25.6990   51.2270 H   0  0  0  0  0  0  0  0  0  0  0  0
   23.2770   26.7500   51.6520 H   0  0  0  0  0  0  0  0  0  0  0  0
   26.8360   29.2840   51.5730 H   0  0  0  0  0  0  0  0  0  0  0  0
   33.3810   27.0580   48.5330 H   0  0  0  0  0  0  0  0  0  0  0  0
   32.9280   25.9030   41.7380 H   0  0  0  0  0  0  0  0  0  0  0  0
   33.8010   20.2280   38.6080 H   0  0  0  0  0  0  0  0  0  0  0  0
   35.0880   17.9800   37.0230 H   0  0  0  0  0  0  0  0  0  0  0  0
   32.2890   12.6080   38.6960 H   0  0  0  0  0  0  0  0  0  0  0  0
   31.5950    8.5680   38.8230 H   0  0  0  0  0  0  0  0  0  0  0  0
   27.2660    6.8350   36.8540 H   0  0  0  0  0  0  0  0  0  0  0  0
   30.4230   11.6670   33.8680 H   0  0  0  0  0  0  0  0  0  0  0  0
  1  2  1  0  0  0  0
  1  3  1  0  0  0  0
  3  4  1  0  0  0  0
  3  5  1  0  0  0  0
  5  6  1  0  0  0  0
  5  7  1  0  0  0  0
  5  8  1  0  0  0  0
  8  9  4  0  0  0  0
  9 10  1  0  0  0  0
  9 11  4  0  0  0  0
 11 12  1  0  0  0  0
 11 13  4  0  0  0  0
 13 14  1  0  0  0  0
 14 15  1  0  0  0  0
 13 16  4  0  0  0  0
 16 17  1  0  0  0  0
  8 18  4  0  0  0  0
 16 18  4  0  0  0  0
 18 19  1  0  0  0  0
  3 20  1  0  0  0  0
 20 21  2  0  0  0  0
 22 23  1  0  0  0  0
 22 24  1  0  0  0  0
 24 25  1  0  0  0  0
 24 26  1  0  0  0  0
 26 27  1  0  0  0  0
 26 28  1  0  0  0  0
 26 29  1  0  0  0  0
 29 30  4  0  0  0  0
 30 31  1  0  0  0  0
 30 32  4  0  0  0  0
 32 33  1  0  0  0  0
 32 34  4  0  0  0  0
 34 35  1  0  0  0  0
 34 36  4  0  0  0  0
 36 37  1  0  0  0  0
 29 38  4  0  0  0  0
 36 38  4  0  0  0  0
 38 39  1  0  0  0  0
 24 40  1  0  0  0  0
 40 41  2  0  0  0  0
 40 42  4  0  0  0  0
 42 43  1  0  0  0  0
 42 44  1  0  0  0  0
 44 45  1  0  0  0  0
 44 46  1  0  0  0  0
 46 47  1  0  0  0  0
 46 48  1  0  0  0  0
 46 49  1  0  0  0  0
 49 50  2  0  0  0  0
 49 51  4  0  0  0  0
 44 52  1  0  0  0  0
 52 53  2  0  0  0  0
 54 55  1  0  0  0  0
 54 56  1  0  0  0  0
 56 57  1  0  0  0  0
 56 58  1  0  0  0  0
 58 59  1  0  0  0  0
 58 60  1  0  0  0  0
 58 61  1  0  0  0  0
 61 62  4  0  0  0  0
 62 63  1  0  0  0  0
 62 64  4  0  0  0  0
 64 65  1  0  0  0  0
 64 66  4  0  0  0  0
 66 67  1  0  0  0  0
 66 68  4  0  0  0  0
 68 69  1  0  0  0  0
 61 70  4  0  0  0  0
 68 70  4  0  0  0  0
 70 71  1  0  0  0  0
 56 72  1  0  0  0  0
 72 73  2  0  0  0  0
 74 75  1  0  0  0  0
 74 76  1  0  0  0  0
 76 77  1  0  0  0  0
 76 78  1  0  0  0  0
 78 79  1  0  0  0  0
 78 80  1  0  0  0  0
 78 81  1  0  0  0  0
 81 82  4  0  0  0  0
 82 83  1  0  0  0  0
 82 84  4  0  0  0  0
 84 85  1  0  0  0  0
 84 86  4  0  0  0  0
 86 87  1  0  0  0  0
 86 88  4  0  0  0  0
 88 89  1  0  0  0  0
 81 90  4  0  0  0  0
 88 90  4  0  0  0  0
 90 91  1  0  0  0  0
 76 92  1  0  0  0  0
 92 93  2  0  0  0  0
 94 95  1  0  0  0  0
 94 96  1  0  0  0  0
 96 97  1  0  0  0  0
 96 98  1  0  0  0  0
 98 99  1  0  0  0  0
 98100  1  0  0  0  0
 98101  1  0  0  0  0
101102  1  0  0  0  0
101103  1  0  0  0  0
101104  1  0  0  0  0
104105  4  0  0  0  0
104106  4  0  0  0  0
 96107  1  0  0  0  0
107108  2  0  0  0  0
107109  4  0  0  0  0
109110  1  0  0  0  0
109111  1  0  0  0  0
111112  1  0  0  0  0
111113  1  0  0  0  0
113114  1  0  0  0  0
113115  1  0  0  0  0
115116  1  0  0  0  0
115117  1  0  0  0  0
115118  1  0  0  0  0
113119  1  0  0  0  0
119120  1  0  0  0  0
119121  1  0  0  0  0
119122  1  0  0  0  0
111123  1  0  0  0  0
123124  2  0  0  0  0
123125  4  0  0  0  0
125126  1  0  0  0  0
125127  1  0  0  0  0
127128  1  0  0  0  0
127129  1  0  0  0  0
129130  1  0  0  0  0
129131  1  0  0  0  0
131132  1  0  0  0  0
131133  1  0  0  0  0
131134  1  0  0  0  0
129135  1  0  0  0  0
135136  1  0  0  0  0
135137  1  0  0  0  0
135138  1  0  0  0  0
138139  1  0  0  0  0
138140  1  0  0  0  0
138141  1  0  0  0  0
127142  1  0  0  0  0
142143  2  0  0  0  0
144145  1  0  0  0  0
144146  1  0  0  0  0
146147  1  0  0  0  0
146148  1  0  0  0  0
148149  1  0  0  0  0
148150  1  0  0  0  0
148151  1  0  0  0  0
151152  4  0  0  0  0
152153  1  0  0  0  0
152154  4  0  0  0  0
154155  1  0  0  0  0
154156  4  0  0  0  0
156157  1  0  0  0  0
157158  1  0  0  0  0
156159  4  0  0  0  0
159160  1  0  0  0  0
151161  4  0  0  0  0
159161  4  0  0  0  0
161162  1  0  0  0  0
146163  1  0  0  0  0
163164  2  0  0  0  0
165166  1  0  0  0  0
165167  1  0  0  0  0
167168  1  0  0  0  0
167169  1  0  0  0  0
169170  1  0  0  0  0
169171  1  0  0  0  0
169172  1  0  0  0  0
172173  4  0  0  0  0
173174  2  0  0  0  0
174175  1  0  0  0  0
174176  4  0  0  0  0
176177  1  0  0  0  0
172178  2  0  0  0  0
176178  1  0  0  0  0
178179  1  0  0  0  0
167180  1  0  0  0  0
180181  2  0  0  0  0
182183  1  0  0  0  0
182184  1  0  0  0  0
184185  1  0  0  0  0
184186  1  0  0  0  0
186187  1  0  0  0  0
186188  1  0  0  0  0
188189  1  0  0  0  0
188190  1  0  0  0  0
188191  1  0  0  0  0
186192  1  0  0  0  0
192193  1  0  0  0  0
192194  1  0  0  0  0
192195  1  0  0  0  0
195196  1  0  0  0  0
195197  1  0  0  0  0
195198  1  0  0  0  0
184199  1  0  0  0  0
199200  2  0  0  0  0
199201  4  0  0  0  0
201202  1  0  0  0  0
201203  1  0  0  0  0
203204  1  0  0  0  0
203205  1  0  0  0  0
205206  1  0  0  0  0
205207  1  0  0  0  0
207208  1  0  0  0  0
207209  1  0  0  0  0
207210  1  0  0  0  0
205211  1  0  0  0  0
211212  1  0  0  0  0
211213  1  0  0  0  0
211214  1  0  0  0  0
214215  1  0  0  0  0
214216  1  0  0  0  0
214217  1  0  0  0  0
203218  1  0  0  0  0
218219  2  0  0  0  0
  1220  1  0  0  0  0
 20221  1  0  0  0  0
 22222  1  0  0  0  0
 52223  1  0  0  0  0
 54224  1  0  0  0  0
 72225  1  0  0  0  0
 74226  1  0  0  0  0
 92227  1  0  0  0  0
 94228  1  0  0  0  0
142229  1  0  0  0  0
144230  1  0  0  0  0
163231  1  0  0  0  0
165232  1  0  0  0  0
180233  1  0  0  0  0
182234  1  0  0  0  0
218235  1  0  0  0  0
M  CHG  1   1  -2
M  END
