 xtb: 6.7.1 (edcfbbe)
          01052609073D

126125  0     0  0            999 V2000
   17.4700    6.4800   42.6800 N   0  0  0  0  0  0  0  0  0  0  0  0
   17.5000    7.4800   42.8200 H   0  0  0  0  0  0  0  0  0  0  0  0
   17.7100    5.5800   43.7900 C   0  0  0  0  0  0  0  0  0  0  0  0
   17.3200    4.6200   43.4500 H   0  0  0  0  0  0  0  0  0  0  0  0
   19.1900    5.2900   44.0000 C   0  0  0  0  0  0  0  0  0  0  0  0
   19.6600    4.9900   43.0600 H   0  0  0  0  0  0  0  0  0  0  0  0
   19.2400    4.4900   44.7400 H   0  0  0  0  0  0  0  0  0  0  0  0
   20.0600    6.3600   44.6200 C   0  0  0  0  0  0  0  0  0  0  0  0
   20.7600    7.2200   43.7700 C   0  0  0  0  0  0  0  0  0  0  0  0
   20.7000    6.9900   42.7200 H   0  0  0  0  0  0  0  0  0  0  0  0
   21.6400    8.1700   44.3100 C   0  0  0  0  0  0  0  0  0  0  0  0
   22.3200    8.7400   43.7000 H   0  0  0  0  0  0  0  0  0  0  0  0
   21.6700    8.3000   45.7000 C   0  0  0  0  0  0  0  0  0  0  0  0
   22.4200    8.9400   46.1300 H   0  0  0  0  0  0  0  0  0  0  0  0
   20.8700    7.5300   46.5600 C   0  0  0  0  0  0  0  0  0  0  0  0
   20.8900    7.7700   47.6100 H   0  0  0  0  0  0  0  0  0  0  0  0
   19.9800    6.6100   46.0000 C   0  0  0  0  0  0  0  0  0  0  0  0
   19.3200    6.0600   46.6600 H   0  0  0  0  0  0  0  0  0  0  0  0
   17.0000    6.0600   45.0500 C   0  0  0  0  0  0  0  0  0  0  0  0
   16.6300    5.2100   45.8500 O   0  0  0  0  0  0  0  0  0  0  0  0
   14.0300   16.2000   54.1900 N   0  0  0  0  0  0  0  0  0  0  0  0
   14.1600   16.6800   53.3100 H   0  0  0  0  0  0  0  0  0  0  0  0
   15.2200   15.7200   54.8600 C   0  0  0  0  0  0  0  0  0  0  0  0
   14.8300   14.8900   55.4600 H   0  0  0  0  0  0  0  0  0  0  0  0
   16.0400   15.0200   53.7800 C   0  0  0  0  0  0  0  0  0  0  0  0
   16.4800   15.7200   53.0700 H   0  0  0  0  0  0  0  0  0  0  0  0
   15.3200   14.4700   53.1800 H   0  0  0  0  0  0  0  0  0  0  0  0
   17.1000   14.1200   54.3800 C   0  0  0  0  0  0  0  0  0  0  0  0
   18.3500   14.6200   54.7700 C   0  0  0  0  0  0  0  0  0  0  0  0
   18.5000   15.6500   54.5000 H   0  0  0  0  0  0  0  0  0  0  0  0
   19.3400   13.7700   55.2700 C   0  0  0  0  0  0  0  0  0  0  0  0
   20.3200   14.1500   55.5400 H   0  0  0  0  0  0  0  0  0  0  0  0
   19.0300   12.4100   55.4200 C   0  0  0  0  0  0  0  0  0  0  0  0
   19.7000   11.7000   55.8800 H   0  0  0  0  0  0  0  0  0  0  0  0
   17.7600   11.9100   55.1100 C   0  0  0  0  0  0  0  0  0  0  0  0
   17.5300   10.8600   55.2100 H   0  0  0  0  0  0  0  0  0  0  0  0
   16.8300   12.7500   54.4900 C   0  0  0  0  0  0  0  0  0  0  0  0
   15.8600   12.3300   54.2600 H   0  0  0  0  0  0  0  0  0  0  0  0
   15.8800   16.7900   55.7100 C   0  0  0  0  0  0  0  0  0  0  0  0
   15.7100   17.9800   55.4500 O   0  0  0  0  0  0  0  0  0  0  0  0
   30.7100    7.2000   48.6100 N   0  0  0  0  0  0  0  0  0  0  0  0
   30.1900    7.3400   47.7600 H   0  0  0  0  0  0  0  0  0  0  0  0
   30.6800    5.9200   49.3000 C   0  0  0  0  0  0  0  0  0  0  0  0
   30.7900    6.1800   50.3500 H   0  0  0  0  0  0  0  0  0  0  0  0
   29.3400    5.2000   49.2100 C   0  0  0  0  0  0  0  0  0  0  0  0
   29.3700    4.2100   49.6700 H   0  0  0  0  0  0  0  0  0  0  0  0
   29.0400    5.0600   48.1700 H   0  0  0  0  0  0  0  0  0  0  0  0
   28.1800    6.0000   49.7500 C   0  0  0  0  0  0  0  0  0  0  0  0
   27.7700    5.7700   51.0800 C   0  0  0  0  0  0  0  0  0  0  0  0
   28.3600    5.0200   51.5900 H   0  0  0  0  0  0  0  0  0  0  0  0
   26.7200    6.5100   51.6200 C   0  0  0  0  0  0  0  0  0  0  0  0
   26.4300    6.4200   52.6500 H   0  0  0  0  0  0  0  0  0  0  0  0
   25.9200    7.3200   50.7800 C   0  0  0  0  0  0  0  0  0  0  0  0
   24.7000    7.7700   51.2000 O   0  0  0  0  0  0  0  0  0  0  0  0
   24.3100    8.4700   50.6800 H   0  0  0  0  0  0  0  0  0  0  0  0
   26.2700    7.4900   49.4300 C   0  0  0  0  0  0  0  0  0  0  0  0
   25.6400    8.0400   48.7500 H   0  0  0  0  0  0  0  0  0  0  0  0
   27.4400    6.8800   48.9600 C   0  0  0  0  0  0  0  0  0  0  0  0
   27.6800    6.9500   47.9000 H   0  0  0  0  0  0  0  0  0  0  0  0
   31.8000    4.9900   48.8400 C   0  0  0  0  0  0  0  0  0  0  0  0
   32.0100    4.0300   49.5800 O   0  0  0  0  0  0  0  0  0  0  0  0
   26.3800    1.0900   50.0400 N   0  0  0  0  0  0  0  0  0  0  0  0
   26.1600    0.9200   49.0700 H   0  0  0  0  0  0  0  0  0  0  0  0
   25.2500    1.2000   50.9300 C   0  0  0  0  0  0  0  0  0  0  0  0
   25.5800    1.1100   51.9700 H   0  0  0  0  0  0  0  0  0  0  0  0
   24.6800    2.6100   50.8400 C   0  0  0  0  0  0  0  0  0  0  0  0
   24.0400    2.8500   50.0000 H   0  0  0  0  0  0  0  0  0  0  0  0
   25.5600    3.2600   50.8900 H   0  0  0  0  0  0  0  0  0  0  0  0
   23.8400    2.8900   52.0600 C   0  0  0  0  0  0  0  0  0  0  0  0
   22.7000    2.2900   52.5900 N   0  0  0  0  0  0  0  0  0  0  0  0
   22.2400    3.0100   53.6200 C   0  0  0  0  0  0  0  0  0  0  0  0
   21.3300    2.9100   54.2000 H   0  0  0  0  0  0  0  0  0  0  0  0
   23.0800    4.0300   53.8300 N   0  0  0  0  0  0  0  0  0  0  0  0
   22.8900    4.8800   54.3500 H   0  0  0  0  0  0  0  0  0  0  0  0
   24.0400    4.0100   52.8400 C   0  0  0  0  0  0  0  0  0  0  0  0
   24.7600    4.8000   52.6700 H   0  0  0  0  0  0  0  0  0  0  0  0
   24.2800    0.0600   50.6400 C   0  0  0  0  0  0  0  0  0  0  0  0
   23.8000   -0.0500   49.5200 O   0  0  0  0  0  0  0  0  0  0  0  0
   21.0200   -0.6700   47.9100 N   0  0  0  0  0  0  0  0  0  0  0  0
   21.8500   -0.6600   48.4800 H   0  0  0  0  0  0  0  0  0  0  0  0
   20.6200    0.6200   47.3800 C   0  0  0  0  0  0  0  0  0  0  0  0
   19.7700    0.4000   46.7200 H   0  0  0  0  0  0  0  0  0  0  0  0
   20.0100    1.3600   48.5600 C   0  0  0  0  0  0  0  0  0  0  0  0
   19.1900    0.7100   48.8700 H   0  0  0  0  0  0  0  0  0  0  0  0
   20.9100    1.6700   49.7600 C   0  0  0  0  0  0  0  0  0  0  0  0
   20.2900    1.9500   50.6100 H   0  0  0  0  0  0  0  0  0  0  0  0
   21.5200    0.8700   50.1700 H   0  0  0  0  0  0  0  0  0  0  0  0
   21.5600    2.5200   49.5800 H   0  0  0  0  0  0  0  0  0  0  0  0
   19.4200    2.7000   48.1300 C   0  0  0  0  0  0  0  0  0  0  0  0
   19.1900    2.6100   47.0700 H   0  0  0  0  0  0  0  0  0  0  0  0
   20.0600    3.5900   48.1800 H   0  0  0  0  0  0  0  0  0  0  0  0
   18.1400    3.0600   48.8700 C   0  0  0  0  0  0  0  0  0  0  0  0
   17.6700    3.9000   48.3600 H   0  0  0  0  0  0  0  0  0  0  0  0
   17.4000    2.2600   48.8200 H   0  0  0  0  0  0  0  0  0  0  0  0
   18.3500    3.2600   49.9300 H   0  0  0  0  0  0  0  0  0  0  0  0
   21.7000    1.3600   46.6000 C   0  0  0  0  0  0  0  0  0  0  0  0
   21.3300    2.1600   45.7400 O   0  0  0  0  0  0  0  0  0  0  0  0
   22.9800    1.2100   46.9200 N   0  0  0  0  0  0  0  0  0  0  0  0
   23.1300    0.5400   47.6600 H   0  0  0  0  0  0  0  0  0  0  0  0
   24.0900    1.8000   46.2000 C   0  0  0  0  0  0  0  0  0  0  0  0
   23.6500    2.1000   45.2500 H   0  0  0  0  0  0  0  0  0  0  0  0
   24.6700    2.9700   46.9800 C   0  0  0  0  0  0  0  0  0  0  0  0
   25.0200    2.5200   47.9100 H   0  0  0  0  0  0  0  0  0  0  0  0
   25.9600    3.5300   46.3700 C   0  0  0  0  0  0  0  0  0  0  0  0
   26.0900    4.5800   46.6300 H   0  0  0  0  0  0  0  0  0  0  0  0
   26.7800    2.9200   46.7400 H   0  0  0  0  0  0  0  0  0  0  0  0
   25.9800    3.4600   45.2800 H   0  0  0  0  0  0  0  0  0  0  0  0
   23.6400    4.0700   47.2500 C   0  0  0  0  0  0  0  0  0  0  0  0
   22.7500    3.6200   47.6900 H   0  0  0  0  0  0  0  0  0  0  0  0
   23.4000    4.4600   46.2600 H   0  0  0  0  0  0  0  0  0  0  0  0
   24.1300    5.2100   48.1400 C   0  0  0  0  0  0  0  0  0  0  0  0
   23.3200    5.6500   48.7300 H   0  0  0  0  0  0  0  0  0  0  0  0
   24.8500    4.8200   48.8600 H   0  0  0  0  0  0  0  0  0  0  0  0
   24.5500    5.9100   47.4200 H   0  0  0  0  0  0  0  0  0  0  0  0
   25.2000    0.7900   45.9500 C   0  0  0  0  0  0  0  0  0  0  0  0
   25.6800    0.2000   46.9200 O   0  0  0  0  0  0  0  0  0  0  0  0
   17.2660    6.1240   41.7570 H   0  0  0  0  0  0  0  0  0  0  0  0
   16.7530    7.1240   45.1820 H   0  0  0  0  0  0  0  0  0  0  0  0
   13.0810   16.1390   54.5310 H   0  0  0  0  0  0  0  0  0  0  0  0
   16.4960   16.3960   56.5320 H   0  0  0  0  0  0  0  0  0  0  0  0
   30.9690    8.0670   49.0590 H   0  0  0  0  0  0  0  0  0  0  0  0
   32.4190    5.2630   47.9730 H   0  0  0  0  0  0  0  0  0  0  0  0
   27.3430    1.3680   50.1600 H   0  0  0  0  0  0  0  0  0  0  0  0
   24.1570   -0.7800   51.3400 H   0  0  0  0  0  0  0  0  0  0  0  0
   20.4190   -1.4760   48.0090 H   0  0  0  0  0  0  0  0  0  0  0  0
   25.5780    0.6260   44.9300 H   0  0  0  0  0  0  0  0  0  0  0  0
  1  2  1  0  0  0  0
  1  3  1  0  0  0  0
  3  4  1  0  0  0  0
  3  5  1  0  0  0  0
  5  6  1  0  0  0  0
  5  7  1  0  0  0  0
  5  8  1  0  0  0  0
  8  9  4  0  0  0  0
  9 10  1  0  0  0  0
  9 11  4  0  0  0  0
 11 12  1  0  0  0  0
 11 13  4  0  0  0  0
 13 14  1  0  0  0  0
 13 15  4  0  0  0  0
 15 16  1  0  0  0  0
  8 17  4  0  0  0  0
 15 17  4  0  0  0  0
 17 18  1  0  0  0  0
  3 19  1  0  0  0  0
 19 20  2  0  0  0  0
 21 22  1  0  0  0  0
 21 23  1  0  0  0  0
 23 24  1  0  0  0  0
 23 25  1  0  0  0  0
 25 26  1  0  0  0  0
 25 27  1  0  0  0  0
 25 28  1  0  0  0  0
 28 29  4  0  0  0  0
 29 30  1  0  0  0  0
 29 31  4  0  0  0  0
 31 32  1  0  0  0  0
 31 33  4  0  0  0  0
 33 34  1  0  0  0  0
 33 35  4  0  0  0  0
 35 36  1  0  0  0  0
 28 37  4  0  0  0  0
 35 37  4  0  0  0  0
 37 38  1  0  0  0  0
 23 39  1  0  0  0  0
 39 40  2  0  0  0  0
 41 42  1  0  0  0  0
 41 43  1  0  0  0  0
 43 44  1  0  0  0  0
 43 45  1  0  0  0  0
 45 46  1  0  0  0  0
 45 47  1  0  0  0  0
 45 48  1  0  0  0  0
 48 49  4  0  0  0  0
 49 50  1  0  0  0  0
 49 51  4  0  0  0  0
 51 52  1  0  0  0  0
 51 53  4  0  0  0  0
 53 54  1  0  0  0  0
 54 55  1  0  0  0  0
 53 56  4  0  0  0  0
 56 57  1  0  0  0  0
 48 58  4  0  0  0  0
 56 58  4  0  0  0  0
 58 59  1  0  0  0  0
 43 60  1  0  0  0  0
 60 61  2  0  0  0  0
 62 63  1  0  0  0  0
 62 64  1  0  0  0  0
 64 65  1  0  0  0  0
 64 66  1  0  0  0  0
 66 67  1  0  0  0  0
 66 68  1  0  0  0  0
 66 69  1  0  0  0  0
 69 70  4  0  0  0  0
 70 71  2  0  0  0  0
 71 72  1  0  0  0  0
 71 73  4  0  0  0  0
 73 74  1  0  0  0  0
 69 75  2  0  0  0  0
 73 75  4  0  0  0  0
 75 76  1  0  0  0  0
 64 77  1  0  0  0  0
 77 78  2  0  0  0  0
 79 80  1  0  0  0  0
 79 81  1  0  0  0  0
 81 82  1  0  0  0  0
 81 83  1  0  0  0  0
 83 84  1  0  0  0  0
 83 85  1  0  0  0  0
 85 86  1  0  0  0  0
 85 87  1  0  0  0  0
 85 88  1  0  0  0  0
 83 89  1  0  0  0  0
 89 90  1  0  0  0  0
 89 91  1  0  0  0  0
 89 92  1  0  0  0  0
 92 93  1  0  0  0  0
 92 94  1  0  0  0  0
 92 95  1  0  0  0  0
 81 96  1  0  0  0  0
 96 97  2  0  0  0  0
 96 98  4  0  0  0  0
 98 99  1  0  0  0  0
 98100  1  0  0  0  0
100101  1  0  0  0  0
100102  1  0  0  0  0
102103  1  0  0  0  0
102104  1  0  0  0  0
104105  1  0  0  0  0
104106  1  0  0  0  0
104107  1  0  0  0  0
102108  1  0  0  0  0
108109  1  0  0  0  0
108110  1  0  0  0  0
108111  1  0  0  0  0
111112  1  0  0  0  0
111113  1  0  0  0  0
111114  1  0  0  0  0
100115  1  0  0  0  0
115116  2  0  0  0  0
  1117  1  0  0  0  0
 19118  1  0  0  0  0
 21119  1  0  0  0  0
 39120  1  0  0  0  0
 41121  1  0  0  0  0
 60122  1  0  0  0  0
 62123  1  0  0  0  0
 77124  1  0  0  0  0
 79125  1  0  0  0  0
115126  1  0  0  0  0
M  END
