 xtb: 6.7.1 (edcfbbe)
          01052609073D

 59 61  0     0  0            999 V2000
   12.0500   15.9900    2.4800 C   0  0  0  0  0  0  0  0  0  0  0  0
   12.9600   16.9900    2.7900 N   0  0  0  0  0  0  0  0  0  0  0  0
   13.0500   18.3200    2.3800 C   0  0  0  0  0  0  0  0  0  0  0  0
   15.6400   20.9900    2.5800 C   0  0  0  0  0  0  0  0  0  0  0  0
   12.0400   19.0000    1.4900 C   0  0  0  0  0  0  0  0  0  0  0  0
   11.2800   20.1500    2.1300 C   0  0  0  0  0  0  0  0  0  0  0  0
   10.2600   19.7400    3.0000 C   0  0  0  0  0  0  0  0  0  0  0  0
    9.3200   20.6800    3.4300 C   0  0  0  0  0  0  0  0  0  0  0  0
    9.4600   22.0300    3.1100 C   0  0  0  0  0  0  0  0  0  0  0  0
   10.5800   22.4400    2.3800 C   0  0  0  0  0  0  0  0  0  0  0  0
   11.4500   21.5000    1.8200 C   0  0  0  0  0  0  0  0  0  0  0  0
   14.3900   20.3100    2.4300 O   0  0  0  0  0  0  0  0  0  0  0  0
   15.1400   18.4600    3.4700 O   0  0  0  0  0  0  0  0  0  0  0  0
   14.2400   19.0500    2.9000 C   0  0  0  0  0  0  0  0  0  0  0  0
   15.4100   22.1700    1.6300 C   0  0  0  0  0  0  0  0  0  0  0  0
   14.6900   14.4300    1.7400 C   0  0  0  0  0  0  0  0  0  0  0  0
   11.1900   16.0900    1.6300 O   0  0  0  0  0  0  0  0  0  0  0  0
   15.5600   14.1500    2.9900 C   0  0  0  0  0  0  0  0  0  0  0  0
   14.8100   14.8300    4.5300 S   0  0  0  0  0  0  0  0  0  0  0  0
   13.0500   14.3800    4.2300 C   0  0  0  0  0  0  0  0  0  0  0  0
   12.5100   14.5700    2.8000 C   0  0  0  0  0  0  0  0  0  0  0  0
   13.3400   13.8700    1.8200 N   0  0  0  0  0  0  0  0  0  0  0  0
   12.6300   13.5700    0.2900 S   0  0  0  0  0  0  0  0  0  0  0  0
   13.8500   12.4300   -0.3600 C   0  0  0  0  0  0  0  0  0  0  0  0
   14.3100   11.3000    0.3300 C   0  0  0  0  0  0  0  0  0  0  0  0
   15.3300   10.5500   -0.2600 C   0  0  0  0  0  0  0  0  0  0  0  0
   15.9500   10.7900   -1.4900 C   0  0  0  0  0  0  0  0  0  0  0  0
   15.4600   11.9400   -2.1100 C   0  0  0  0  0  0  0  0  0  0  0  0
   14.4400   12.7400   -1.5800 C   0  0  0  0  0  0  0  0  0  0  0  0
   12.6600   14.7700   -0.5400 O   0  0  0  0  0  0  0  0  0  0  0  0
   11.4300   12.8000    0.6400 O   0  0  0  0  0  0  0  0  0  0  0  0
   17.0300    9.9000   -2.0700 C   0  0  0  0  0  0  0  0  0  0  0  0
   13.7900   16.7000    3.3000 H   0  0  0  0  0  0  0  0  0  0  0  0
   15.7500   21.3000    3.6200 H   0  0  0  0  0  0  0  0  0  0  0  0
   16.4500   20.2900    2.3200 H   0  0  0  0  0  0  0  0  0  0  0  0
   12.4800   19.2900    0.5300 H   0  0  0  0  0  0  0  0  0  0  0  0
   11.2400   18.3600    1.1100 H   0  0  0  0  0  0  0  0  0  0  0  0
   10.1300   18.6700    3.1700 H   0  0  0  0  0  0  0  0  0  0  0  0
    8.4400   20.3800    3.9900 H   0  0  0  0  0  0  0  0  0  0  0  0
    8.8000   22.7500    3.5900 H   0  0  0  0  0  0  0  0  0  0  0  0
   10.6300   23.5000    2.1400 H   0  0  0  0  0  0  0  0  0  0  0  0
   12.2400   21.9200    1.2000 H   0  0  0  0  0  0  0  0  0  0  0  0
   15.3900   21.8300    0.5800 H   0  0  0  0  0  0  0  0  0  0  0  0
   16.2200   22.9000    1.7400 H   0  0  0  0  0  0  0  0  0  0  0  0
   14.4500   22.6200    1.8900 H   0  0  0  0  0  0  0  0  0  0  0  0
   14.5300   15.5100    1.6400 H   0  0  0  0  0  0  0  0  0  0  0  0
   15.2100   14.0900    0.8400 H   0  0  0  0  0  0  0  0  0  0  0  0
   15.7600   13.0800    3.1300 H   0  0  0  0  0  0  0  0  0  0  0  0
   16.5100   14.6700    2.8200 H   0  0  0  0  0  0  0  0  0  0  0  0
   12.8100   13.3600    4.5600 H   0  0  0  0  0  0  0  0  0  0  0  0
   12.5200   15.0600    4.9200 H   0  0  0  0  0  0  0  0  0  0  0  0
   11.4800   14.2100    2.8600 H   0  0  0  0  0  0  0  0  0  0  0  0
   13.8500   11.0900    1.2900 H   0  0  0  0  0  0  0  0  0  0  0  0
   15.7400    9.7000    0.2800 H   0  0  0  0  0  0  0  0  0  0  0  0
   15.8400   12.2500   -3.0800 H   0  0  0  0  0  0  0  0  0  0  0  0
   14.2000   13.6600   -2.1000 H   0  0  0  0  0  0  0  0  0  0  0  0
   17.3700   10.3200   -3.0200 H   0  0  0  0  0  0  0  0  0  0  0  0
   16.6900    8.8800   -2.2500 H   0  0  0  0  0  0  0  0  0  0  0  0
   17.9000    9.9300   -1.3900 H   0  0  0  0  0  0  0  0  0  0  0  0
  1  2  1  0  0  0  0
  2  3  4  0  0  0  0
  3  5  1  0  0  0  0
  5  6  1  0  0  0  0
  6  7  4  0  0  0  0
  7  8  4  0  0  0  0
  8  9  4  0  0  0  0
  9 10  4  0  0  0  0
  6 11  4  0  0  0  0
 10 11  4  0  0  0  0
  4 12  1  0  0  0  0
  3 14  1  0  0  0  0
 12 14  1  0  0  0  0
 13 14  2  0  0  0  0
  4 15  1  0  0  0  0
  1 17  2  0  0  0  0
 16 18  1  0  0  0  0
 18 19  1  0  0  0  0
 19 20  1  0  0  0  0
  1 21  1  0  0  0  0
 20 21  1  0  0  0  0
 16 22  1  0  0  0  0
 21 22  1  0  0  0  0
 22 23  1  0  0  0  0
 23 24  1  0  0  0  0
 24 25  4  0  0  0  0
 25 26  4  0  0  0  0
 26 27  4  0  0  0  0
 27 28  4  0  0  0  0
 24 29  4  0  0  0  0
 28 29  4  0  0  0  0
 23 30  2  0  0  0  0
 23 31  2  0  0  0  0
 27 32  1  0  0  0  0
  2 33  1  0  0  0  0
  4 34  1  0  0  0  0
  4 35  1  0  0  0  0
  5 36  1  0  0  0  0
  5 37  1  0  0  0  0
  7 38  1  0  0  0  0
  8 39  1  0  0  0  0
  9 40  1  0  0  0  0
 10 41  1  0  0  0  0
 11 42  1  0  0  0  0
 15 43  1  0  0  0  0
 15 44  1  0  0  0  0
 15 45  1  0  0  0  0
 16 46  1  0  0  0  0
 16 47  1  0  0  0  0
 18 48  1  0  0  0  0
 18 49  1  0  0  0  0
 20 50  1  0  0  0  0
 20 51  1  0  0  0  0
 21 52  1  0  0  0  0
 25 53  1  0  0  0  0
 26 54  1  0  0  0  0
 28 55  1  0  0  0  0
 29 56  1  0  0  0  0
 32 57  1  0  0  0  0
 32 58  1  0  0  0  0
 32 59  1  0  0  0  0
M  CHG  1   1   1
M  END
