 xtb: 6.7.1 (edcfbbe)
          01052609063D

 59 61  0     0  0            999 V2000
   39.2100   26.9600   42.0000 C   0  0  0  0  0  0  0  0  0  0  0  0
   38.4300   27.5400   42.9700 N   0  0  0  0  0  0  0  0  0  0  0  0
   38.8000   27.9700   44.2500 C   0  0  0  0  0  0  0  0  0  0  0  0
   37.1100   28.3900   47.5700 C   0  0  0  0  0  0  0  0  0  0  0  0
   40.1700   28.5400   44.5500 C   0  0  0  0  0  0  0  0  0  0  0  0
   40.5400   29.6700   43.6200 C   0  0  0  0  0  0  0  0  0  0  0  0
   40.0700   30.9400   43.9800 C   0  0  0  0  0  0  0  0  0  0  0  0
   40.4500   32.0600   43.2400 C   0  0  0  0  0  0  0  0  0  0  0  0
   41.2700   31.8800   42.1200 C   0  0  0  0  0  0  0  0  0  0  0  0
   41.6900   30.6100   41.7100 C   0  0  0  0  0  0  0  0  0  0  0  0
   41.3500   29.5100   42.4900 C   0  0  0  0  0  0  0  0  0  0  0  0
   37.9800   28.5600   46.4500 O   0  0  0  0  0  0  0  0  0  0  0  0
   36.5400   27.7600   44.8800 O   0  0  0  0  0  0  0  0  0  0  0  0
   37.6800   28.0200   45.2300 C   0  0  0  0  0  0  0  0  0  0  0  0
   37.5300   29.2800   48.7600 C   0  0  0  0  0  0  0  0  0  0  0  0
   37.4900   24.5100   41.0000 C   0  0  0  0  0  0  0  0  0  0  0  0
   40.3300   26.4900   42.1400 O   0  0  0  0  0  0  0  0  0  0  0  0
   36.0400   25.0000   40.8900 C   0  0  0  0  0  0  0  0  0  0  0  0
   35.7500   26.7200   41.4800 S   0  0  0  0  0  0  0  0  0  0  0  0
   37.1500   27.4800   40.5500 C   0  0  0  0  0  0  0  0  0  0  0  0
   38.4900   26.7300   40.6700 C   0  0  0  0  0  0  0  0  0  0  0  0
   38.4400   25.3300   40.2400 N   0  0  0  0  0  0  0  0  0  0  0  0
   38.4800   25.0800   38.5500 S   0  0  0  0  0  0  0  0  0  0  0  0
   38.7500   23.3100   38.4200 C   0  0  0  0  0  0  0  0  0  0  0  0
   37.9100   22.5200   37.6300 C   0  0  0  0  0  0  0  0  0  0  0  0
   38.1100   21.1500   37.4700 C   0  0  0  0  0  0  0  0  0  0  0  0
   39.2600   20.5800   38.0300 C   0  0  0  0  0  0  0  0  0  0  0  0
   40.1400   21.3800   38.7700 C   0  0  0  0  0  0  0  0  0  0  0  0
   39.9600   22.7700   38.8700 C   0  0  0  0  0  0  0  0  0  0  0  0
   39.7300   25.6700   38.0700 O   0  0  0  0  0  0  0  0  0  0  0  0
   37.1600   25.3700   37.9800 O   0  0  0  0  0  0  0  0  0  0  0  0
   39.4700   19.0800   37.9300 C   0  0  0  0  0  0  0  0  0  0  0  0
   37.4800   27.7500   42.6800 H   0  0  0  0  0  0  0  0  0  0  0  0
   36.1300   28.8400   47.3800 H   0  0  0  0  0  0  0  0  0  0  0  0
   37.0800   27.3300   47.8500 H   0  0  0  0  0  0  0  0  0  0  0  0
   40.3600   28.8600   45.5800 H   0  0  0  0  0  0  0  0  0  0  0  0
   40.8900   27.7200   44.4200 H   0  0  0  0  0  0  0  0  0  0  0  0
   39.4000   31.0000   44.8400 H   0  0  0  0  0  0  0  0  0  0  0  0
   40.0900   33.0700   43.4500 H   0  0  0  0  0  0  0  0  0  0  0  0
   41.4100   32.8000   41.5500 H   0  0  0  0  0  0  0  0  0  0  0  0
   42.3900   30.4900   40.8800 H   0  0  0  0  0  0  0  0  0  0  0  0
   41.7400   28.5400   42.2100 H   0  0  0  0  0  0  0  0  0  0  0  0
   37.9100   30.2400   48.3900 H   0  0  0  0  0  0  0  0  0  0  0  0
   38.3400   28.7500   49.2700 H   0  0  0  0  0  0  0  0  0  0  0  0
   36.6700   29.3000   49.4400 H   0  0  0  0  0  0  0  0  0  0  0  0
   37.7600   24.6100   42.0600 H   0  0  0  0  0  0  0  0  0  0  0  0
   37.4900   23.4200   40.8400 H   0  0  0  0  0  0  0  0  0  0  0  0
   35.6400   25.0700   39.8700 H   0  0  0  0  0  0  0  0  0  0  0  0
   35.4000   24.3300   41.4900 H   0  0  0  0  0  0  0  0  0  0  0  0
   36.7900   27.5300   39.5200 H   0  0  0  0  0  0  0  0  0  0  0  0
   37.2800   28.5200   40.8600 H   0  0  0  0  0  0  0  0  0  0  0  0
   39.2600   27.2500   40.0700 H   0  0  0  0  0  0  0  0  0  0  0  0
   37.0000   23.0200   37.3100 H   0  0  0  0  0  0  0  0  0  0  0  0
   37.3700   20.4900   37.0200 H   0  0  0  0  0  0  0  0  0  0  0  0
   41.1400   21.0000   38.9200 H   0  0  0  0  0  0  0  0  0  0  0  0
   40.6400   23.3900   39.4600 H   0  0  0  0  0  0  0  0  0  0  0  0
   40.1600   18.7800   37.1400 H   0  0  0  0  0  0  0  0  0  0  0  0
   38.6300   18.4700   37.5900 H   0  0  0  0  0  0  0  0  0  0  0  0
   39.8300   18.6000   38.8500 H   0  0  0  0  0  0  0  0  0  0  0  0
  1  2  1  0  0  0  0
  2  3  4  0  0  0  0
  3  5  1  0  0  0  0
  5  6  1  0  0  0  0
  6  7  4  0  0  0  0
  7  8  4  0  0  0  0
  8  9  4  0  0  0  0
  9 10  4  0  0  0  0
  6 11  4  0  0  0  0
 10 11  4  0  0  0  0
  4 12  1  0  0  0  0
  3 14  1  0  0  0  0
 12 14  1  0  0  0  0
 13 14  2  0  0  0  0
  4 15  1  0  0  0  0
  1 17  2  0  0  0  0
 16 18  1  0  0  0  0
 18 19  1  0  0  0  0
 19 20  1  0  0  0  0
  1 21  1  0  0  0  0
 20 21  1  0  0  0  0
 16 22  1  0  0  0  0
 21 22  1  0  0  0  0
 22 23  1  0  0  0  0
 23 24  1  0  0  0  0
 24 25  4  0  0  0  0
 25 26  4  0  0  0  0
 26 27  4  0  0  0  0
 27 28  4  0  0  0  0
 24 29  4  0  0  0  0
 28 29  4  0  0  0  0
 23 30  2  0  0  0  0
 23 31  2  0  0  0  0
 27 32  1  0  0  0  0
  2 33  1  0  0  0  0
  4 34  1  0  0  0  0
  4 35  1  0  0  0  0
  5 36  1  0  0  0  0
  5 37  1  0  0  0  0
  7 38  1  0  0  0  0
  8 39  1  0  0  0  0
  9 40  1  0  0  0  0
 10 41  1  0  0  0  0
 11 42  1  0  0  0  0
 15 43  1  0  0  0  0
 15 44  1  0  0  0  0
 15 45  1  0  0  0  0
 16 46  1  0  0  0  0
 16 47  1  0  0  0  0
 18 48  1  0  0  0  0
 18 49  1  0  0  0  0
 20 50  1  0  0  0  0
 20 51  1  0  0  0  0
 21 52  1  0  0  0  0
 25 53  1  0  0  0  0
 26 54  1  0  0  0  0
 28 55  1  0  0  0  0
 29 56  1  0  0  0  0
 32 57  1  0  0  0  0
 32 58  1  0  0  0  0
 32 59  1  0  0  0  0
M  CHG  1   1   1
M  END
