 xtb: 6.7.1 (edcfbbe)
          01052609073D

188185  0     0  0            999 V2000
    8.8700   11.4400   56.8800 N   0  0  0  0  0  0  0  0  0  0  0  0
    9.2700   12.3200   56.5800 H   0  0  0  0  0  0  0  0  0  0  0  0
    9.1400   11.1900   58.2800 C   0  0  0  0  0  0  0  0  0  0  0  0
    8.2100   10.7500   58.6500 H   0  0  0  0  0  0  0  0  0  0  0  0
   10.2300   10.1300   58.3400 C   0  0  0  0  0  0  0  0  0  0  0  0
    9.8800    9.2000   57.8800 H   0  0  0  0  0  0  0  0  0  0  0  0
   10.2700    9.8100   59.3800 H   0  0  0  0  0  0  0  0  0  0  0  0
   11.6200   10.4500   57.8500 C   0  0  0  0  0  0  0  0  0  0  0  0
   12.0000   10.4000   56.5000 C   0  0  0  0  0  0  0  0  0  0  0  0
   11.2900    9.9700   55.8000 H   0  0  0  0  0  0  0  0  0  0  0  0
   13.2700   10.8000   56.0800 C   0  0  0  0  0  0  0  0  0  0  0  0
   13.4900   10.6600   55.0300 H   0  0  0  0  0  0  0  0  0  0  0  0
   14.2100   11.2400   57.0100 C   0  0  0  0  0  0  0  0  0  0  0  0
   15.1800   11.5900   56.7000 H   0  0  0  0  0  0  0  0  0  0  0  0
   13.8200   11.3700   58.3500 C   0  0  0  0  0  0  0  0  0  0  0  0
   14.5200   11.7200   59.0900 H   0  0  0  0  0  0  0  0  0  0  0  0
   12.5000   11.0800   58.7400 C   0  0  0  0  0  0  0  0  0  0  0  0
   12.2200   11.2900   59.7600 H   0  0  0  0  0  0  0  0  0  0  0  0
    9.4800   12.4000   59.1500 C   0  0  0  0  0  0  0  0  0  0  0  0
    9.3200   12.3200   60.3700 O   0  0  0  0  0  0  0  0  0  0  0  0
    9.9400   13.5200   58.5900 N   0  0  0  0  0  0  0  0  0  0  0  0
   10.1600   13.5100   57.6100 H   0  0  0  0  0  0  0  0  0  0  0  0
   10.1900   14.7600   59.3000 C   0  0  0  0  0  0  0  0  0  0  0  0
    9.3700   14.9000   60.0100 H   0  0  0  0  0  0  0  0  0  0  0  0
   11.4100   14.7600   60.2100 C   0  0  0  0  0  0  0  0  0  0  0  0
   12.3100   14.4600   59.6800 H   0  0  0  0  0  0  0  0  0  0  0  0
   11.2600   14.0000   60.9900 H   0  0  0  0  0  0  0  0  0  0  0  0
   11.5600   16.0800   60.9500 C   0  0  0  0  0  0  0  0  0  0  0  0
   10.6400   16.5400   61.6600 O   0  0  0  0  0  0  0  0  0  0  0  0
   12.5600   16.8000   60.7100 O   0  0  0  0  0  0  0  0  0  0  0  0
   10.2600   15.9500   58.3500 C   0  0  0  0  0  0  0  0  0  0  0  0
   10.8800   15.8600   57.3000 O   0  0  0  0  0  0  0  0  0  0  0  0
    6.4400   22.4700   60.8200 N   0  0  0  0  0  0  0  0  0  0  0  0
    7.3200   22.1900   60.4000 H   0  0  0  0  0  0  0  0  0  0  0  0
    6.6600   23.3900   61.9200 C   0  0  0  0  0  0  0  0  0  0  0  0
    5.7900   23.3300   62.5800 H   0  0  0  0  0  0  0  0  0  0  0  0
    7.8800   23.0300   62.7700 C   0  0  0  0  0  0  0  0  0  0  0  0
    7.9100   23.7700   63.5700 H   0  0  0  0  0  0  0  0  0  0  0  0
    8.7900   23.2600   62.2100 H   0  0  0  0  0  0  0  0  0  0  0  0
    7.7800   21.6000   63.2700 C   0  0  0  0  0  0  0  0  0  0  0  0
    7.8500   21.0100   62.3600 H   0  0  0  0  0  0  0  0  0  0  0  0
    6.8100   21.4700   63.7400 H   0  0  0  0  0  0  0  0  0  0  0  0
    8.9400   21.2800   64.2200 C   0  0  0  0  0  0  0  0  0  0  0  0
    8.7200   20.3800   64.7900 H   0  0  0  0  0  0  0  0  0  0  0  0
    9.1200   22.1000   64.9100 H   0  0  0  0  0  0  0  0  0  0  0  0
   10.1300   21.1300   63.3900 N   0  0  0  0  0  0  0  0  0  0  0  0
   10.7300   21.9300   63.2500 H   0  0  0  0  0  0  0  0  0  0  0  0
   10.5100   19.9900   62.8000 C   0  0  0  0  0  0  0  0  0  0  0  0
    9.7300   18.9000   62.7300 N   0  0  0  0  0  0  0  0  0  0  0  0
    8.8300   18.8500   63.1800 H   0  0  0  0  0  0  0  0  0  0  0  0
   10.0900   18.0400   62.3300 H   0  0  0  0  0  0  0  0  0  0  0  0
   11.7600   19.8600   62.3400 N   0  0  0  0  0  0  0  0  0  0  0  0
   12.4200   20.6200   62.4500 H   0  0  0  0  0  0  0  0  0  0  0  0
   12.0300   18.9200   62.1000 H   0  0  0  0  0  0  0  0  0  0  0  0
    6.7500   24.8600   61.5500 C   0  0  0  0  0  0  0  0  0  0  0  0
    6.6800   25.7300   62.4100 O   0  0  0  0  0  0  0  0  0  0  0  0
    9.2700   26.7900   60.6700 N   0  0  0  0  0  0  0  0  0  0  0  0
    9.2600   25.8500   60.2900 H   0  0  0  0  0  0  0  0  0  0  0  0
   10.4600   27.2900   61.3300 C   0  0  0  0  0  0  0  0  0  0  0  0
   10.4800   28.3700   61.1900 H   0  0  0  0  0  0  0  0  0  0  0  0
   10.4600   26.9300   62.8200 C   0  0  0  0  0  0  0  0  0  0  0  0
   11.3700   27.2500   63.3100 H   0  0  0  0  0  0  0  0  0  0  0  0
   10.2100   25.8900   63.0200 H   0  0  0  0  0  0  0  0  0  0  0  0
    9.3500   27.6800   63.5400 C   0  0  0  0  0  0  0  0  0  0  0  0
    8.4100   27.2400   63.2000 H   0  0  0  0  0  0  0  0  0  0  0  0
    9.3900   28.7400   63.3000 H   0  0  0  0  0  0  0  0  0  0  0  0
    9.5100   27.6300   65.0600 C   0  0  0  0  0  0  0  0  0  0  0  0
   10.3900   28.2500   65.2700 H   0  0  0  0  0  0  0  0  0  0  0  0
    9.7500   26.6100   65.3400 H   0  0  0  0  0  0  0  0  0  0  0  0
    8.2600   28.1100   65.7900 C   0  0  0  0  0  0  0  0  0  0  0  0
    7.5100   27.3300   65.9400 H   0  0  0  0  0  0  0  0  0  0  0  0
    7.8900   28.8200   65.0600 H   0  0  0  0  0  0  0  0  0  0  0  0
    8.5400   28.8500   67.0300 N   0  0  0  0  0  0  0  0  0  0  0  0
    9.3100   28.5700   67.6200 H   0  0  0  0  0  0  0  0  0  0  0  0
    8.7300   29.8100   66.7700 H   0  0  0  0  0  0  0  0  0  0  0  0
    7.7000   28.8100   67.5900 H   0  0  0  0  0  0  0  0  0  0  0  0
   11.6500   26.6600   60.6300 C   0  0  0  0  0  0  0  0  0  0  0  0
   12.0800   25.5300   60.8500 O   0  0  0  0  0  0  0  0  0  0  0  0
   15.5100   25.8300   59.9200 N   0  0  0  0  0  0  0  0  0  0  0  0
   15.4200   25.5100   58.9700 H   0  0  0  0  0  0  0  0  0  0  0  0
   16.5200   25.3200   60.8300 C   0  0  0  0  0  0  0  0  0  0  0  0
   16.3100   25.5400   61.8700 H   0  0  0  0  0  0  0  0  0  0  0  0
   16.5500   23.8000   60.8000 C   0  0  0  0  0  0  0  0  0  0  0  0
   16.6200   23.5600   59.7300 H   0  0  0  0  0  0  0  0  0  0  0  0
   15.5900   23.4300   61.1700 H   0  0  0  0  0  0  0  0  0  0  0  0
   17.6900   23.1300   61.5200 C   0  0  0  0  0  0  0  0  0  0  0  0
   18.7800   22.5300   60.8800 C   0  0  0  0  0  0  0  0  0  0  0  0
   18.9700   22.3400   59.8300 H   0  0  0  0  0  0  0  0  0  0  0  0
   19.7300   21.9400   61.7200 C   0  0  0  0  0  0  0  0  0  0  0  0
   20.6500   21.4700   61.4300 H   0  0  0  0  0  0  0  0  0  0  0  0
   19.6200   22.0600   63.1200 C   0  0  0  0  0  0  0  0  0  0  0  0
   20.4000   21.6000   63.7100 H   0  0  0  0  0  0  0  0  0  0  0  0
   18.5300   22.6600   63.7600 C   0  0  0  0  0  0  0  0  0  0  0  0
   18.4300   22.8400   64.8200 H   0  0  0  0  0  0  0  0  0  0  0  0
   17.5900   23.2700   62.9200 C   0  0  0  0  0  0  0  0  0  0  0  0
   16.8300   23.8400   63.4300 H   0  0  0  0  0  0  0  0  0  0  0  0
   17.8800   25.9000   60.4600 C   0  0  0  0  0  0  0  0  0  0  0  0
   18.1500   26.4400   59.3900 O   0  0  0  0  0  0  0  0  0  0  0  0
   22.7700    7.8000   58.2000 N   0  0  0  0  0  0  0  0  0  0  0  0
   21.9300    7.8200   57.6500 H   0  0  0  0  0  0  0  0  0  0  0  0
   22.8800    6.9100   59.3400 C   0  0  0  0  0  0  0  0  0  0  0  0
   23.6300    7.3500   60.0000 H   0  0  0  0  0  0  0  0  0  0  0  0
   21.5400    6.9700   60.0800 C   0  0  0  0  0  0  0  0  0  0  0  0
   21.6500    6.4800   61.0500 H   0  0  0  0  0  0  0  0  0  0  0  0
   20.7200    6.4300   59.6200 H   0  0  0  0  0  0  0  0  0  0  0  0
   21.1400    8.4100   60.3100 C   0  0  0  0  0  0  0  0  0  0  0  0
   21.4400    9.1000   61.4900 C   0  0  0  0  0  0  0  0  0  0  0  0
   22.0500    8.6400   62.2600 H   0  0  0  0  0  0  0  0  0  0  0  0
   20.8800   10.3300   61.8400 C   0  0  0  0  0  0  0  0  0  0  0  0
   21.0300   10.7700   62.8300 H   0  0  0  0  0  0  0  0  0  0  0  0
   20.1400   11.0500   60.8800 C   0  0  0  0  0  0  0  0  0  0  0  0
   19.6800   12.2900   61.1800 O   0  0  0  0  0  0  0  0  0  0  0  0
   20.0900   12.8600   61.8400 H   0  0  0  0  0  0  0  0  0  0  0  0
   19.8400   10.3800   59.6800 C   0  0  0  0  0  0  0  0  0  0  0  0
   19.2000   10.9700   59.0300 H   0  0  0  0  0  0  0  0  0  0  0  0
   20.2600    9.0700   59.4400 C   0  0  0  0  0  0  0  0  0  0  0  0
   20.0400    8.6100   58.4900 H   0  0  0  0  0  0  0  0  0  0  0  0
   23.3700    5.5200   58.9800 C   0  0  0  0  0  0  0  0  0  0  0  0
   23.5700    4.7000   59.8800 O   0  0  0  0  0  0  0  0  0  0  0  0
   18.9000    4.0300   62.3600 N   0  0  0  0  0  0  0  0  0  0  0  0
   18.1300    3.8000   61.7400 H   0  0  0  0  0  0  0  0  0  0  0  0
   18.4700    4.7700   63.5300 C   0  0  0  0  0  0  0  0  0  0  0  0
   19.2200    4.3800   64.2200 H   0  0  0  0  0  0  0  0  0  0  0  0
   18.4700    6.3000   63.4400 C   0  0  0  0  0  0  0  0  0  0  0  0
   17.6500    6.6300   62.8000 H   0  0  0  0  0  0  0  0  0  0  0  0
   19.3300    6.4900   62.8000 H   0  0  0  0  0  0  0  0  0  0  0  0
   18.3800    7.0600   64.7400 C   0  0  0  0  0  0  0  0  0  0  0  0
   19.5100    7.6800   65.2700 N   0  0  0  0  0  0  0  0  0  0  0  0
   19.1100    8.1300   66.4600 C   0  0  0  0  0  0  0  0  0  0  0  0
   19.7400    8.6400   67.1600 H   0  0  0  0  0  0  0  0  0  0  0  0
   17.8700    7.6900   66.7500 N   0  0  0  0  0  0  0  0  0  0  0  0
   17.4300    7.8800   67.6400 H   0  0  0  0  0  0  0  0  0  0  0  0
   17.3600    7.0100   65.6600 C   0  0  0  0  0  0  0  0  0  0  0  0
   16.4400    6.4900   65.4900 H   0  0  0  0  0  0  0  0  0  0  0  0
   17.1200    4.2000   63.9000 C   0  0  0  0  0  0  0  0  0  0  0  0
   16.1700    4.2400   63.1200 O   0  0  0  0  0  0  0  0  0  0  0  0
   12.6900    4.5600   63.1300 N   0  0  0  0  0  0  0  0  0  0  0  0
   13.6500    4.2500   63.1900 H   0  0  0  0  0  0  0  0  0  0  0  0
   12.4000    5.6300   62.1900 C   0  0  0  0  0  0  0  0  0  0  0  0
   11.3700    5.4600   61.8800 H   0  0  0  0  0  0  0  0  0  0  0  0
   12.6200    7.0100   62.8000 C   0  0  0  0  0  0  0  0  0  0  0  0
   11.9600    7.1600   63.6500 H   0  0  0  0  0  0  0  0  0  0  0  0
   14.0600    7.2100   63.2400 C   0  0  0  0  0  0  0  0  0  0  0  0
   14.3700    6.3700   63.8600 H   0  0  0  0  0  0  0  0  0  0  0  0
   14.8300    7.3900   62.4900 H   0  0  0  0  0  0  0  0  0  0  0  0
   14.0800    8.0300   63.9500 H   0  0  0  0  0  0  0  0  0  0  0  0
   12.1100    8.0300   61.7700 C   0  0  0  0  0  0  0  0  0  0  0  0
   11.0600    7.8500   61.5300 H   0  0  0  0  0  0  0  0  0  0  0  0
   12.7400    7.9300   60.8900 H   0  0  0  0  0  0  0  0  0  0  0  0
   12.3000    9.4600   62.2600 C   0  0  0  0  0  0  0  0  0  0  0  0
   11.7900    9.7000   63.2000 H   0  0  0  0  0  0  0  0  0  0  0  0
   13.3300    9.6000   62.6000 H   0  0  0  0  0  0  0  0  0  0  0  0
   12.0500   10.1800   61.4700 H   0  0  0  0  0  0  0  0  0  0  0  0
   13.1800    5.4800   60.8900 C   0  0  0  0  0  0  0  0  0  0  0  0
   12.6000    5.7400   59.8400 O   0  0  0  0  0  0  0  0  0  0  0  0
   14.4900    5.2200   60.8900 N   0  0  0  0  0  0  0  0  0  0  0  0
   14.9500    5.0600   61.7700 H   0  0  0  0  0  0  0  0  0  0  0  0
   15.3300    5.0700   59.7100 C   0  0  0  0  0  0  0  0  0  0  0  0
   14.7000    5.0600   58.8200 H   0  0  0  0  0  0  0  0  0  0  0  0
   16.2800    6.2600   59.6300 C   0  0  0  0  0  0  0  0  0  0  0  0
   16.5400    6.5800   60.6400 H   0  0  0  0  0  0  0  0  0  0  0  0
   17.5200    5.9400   58.8100 C   0  0  0  0  0  0  0  0  0  0  0  0
   18.2000    5.3300   59.4100 H   0  0  0  0  0  0  0  0  0  0  0  0
   17.2600    5.4200   57.8900 H   0  0  0  0  0  0  0  0  0  0  0  0
   18.0300    6.8500   58.5000 H   0  0  0  0  0  0  0  0  0  0  0  0
   15.6000    7.4900   59.0200 C   0  0  0  0  0  0  0  0  0  0  0  0
   14.5100    7.4900   59.1300 H   0  0  0  0  0  0  0  0  0  0  0  0
   15.7600    7.4600   57.9500 H   0  0  0  0  0  0  0  0  0  0  0  0
   16.3600    8.7200   59.5100 C   0  0  0  0  0  0  0  0  0  0  0  0
   17.3900    8.6000   59.8400 H   0  0  0  0  0  0  0  0  0  0  0  0
   16.3600    9.5200   58.7800 H   0  0  0  0  0  0  0  0  0  0  0  0
   15.7900    9.1500   60.3400 H   0  0  0  0  0  0  0  0  0  0  0  0
   16.0600    3.7400   59.6200 C   0  0  0  0  0  0  0  0  0  0  0  0
   17.0300    3.5000   60.3400 O   0  0  0  0  0  0  0  0  0  0  0  0
    8.2670   10.8900   56.2850 H   0  0  0  0  0  0  0  0  0  0  0  0
    9.8150   16.9140   58.6380 H   0  0  0  0  0  0  0  0  0  0  0  0
    5.6010   22.1000   60.3970 H   0  0  0  0  0  0  0  0  0  0  0  0
    6.9060   25.1140   60.4910 H   0  0  0  0  0  0  0  0  0  0  0  0
    8.4130   27.2780   60.4520 H   0  0  0  0  0  0  0  0  0  0  0  0
   12.1850   27.3520   59.9630 H   0  0  0  0  0  0  0  0  0  0  0  0
   14.8450   26.5400   60.1920 H   0  0  0  0  0  0  0  0  0  0  0  0
   18.6860   25.8920   61.2080 H   0  0  0  0  0  0  0  0  0  0  0  0
   23.5110    8.4120   57.8900 H   0  0  0  0  0  0  0  0  0  0  0  0
   23.6330    5.2980   57.9350 H   0  0  0  0  0  0  0  0  0  0  0  0
   19.8390    3.7040   62.1780 H   0  0  0  0  0  0  0  0  0  0  0  0
   17.0620    3.7150   64.8860 H   0  0  0  0  0  0  0  0  0  0  0  0
   12.0070    4.0900   63.7070 H   0  0  0  0  0  0  0  0  0  0  0  0
   15.7960    3.0140   58.8370 H   0  0  0  0  0  0  0  0  0  0  0  0
  1  2  1  0  0  0  0
  1  3  1  0  0  0  0
  3  4  1  0  0  0  0
  3  5  1  0  0  0  0
  5  6  1  0  0  0  0
  5  7  1  0  0  0  0
  5  8  1  0  0  0  0
  8  9  4  0  0  0  0
  9 10  1  0  0  0  0
  9 11  4  0  0  0  0
 11 12  1  0  0  0  0
 11 13  4  0  0  0  0
 13 14  1  0  0  0  0
 13 15  4  0  0  0  0
 15 16  1  0  0  0  0
  8 17  4  0  0  0  0
 15 17  4  0  0  0  0
 17 18  1  0  0  0  0
  3 19  1  0  0  0  0
 19 20  2  0  0  0  0
 19 21  4  0  0  0  0
 21 22  1  0  0  0  0
 21 23  1  0  0  0  0
 23 24  1  0  0  0  0
 23 25  1  0  0  0  0
 25 26  1  0  0  0  0
 25 27  1  0  0  0  0
 25 28  1  0  0  0  0
 28 29  4  0  0  0  0
 28 30  2  0  0  0  0
 23 31  1  0  0  0  0
 31 32  2  0  0  0  0
 33 34  1  0  0  0  0
 33 35  1  0  0  0  0
 35 36  1  0  0  0  0
 35 37  1  0  0  0  0
 37 38  1  0  0  0  0
 37 39  1  0  0  0  0
 37 40  1  0  0  0  0
 40 41  1  0  0  0  0
 40 42  1  0  0  0  0
 40 43  1  0  0  0  0
 43 44  1  0  0  0  0
 43 45  1  0  0  0  0
 43 46  1  0  0  0  0
 46 47  1  0  0  0  0
 46 48  4  0  0  0  0
 48 49  4  0  0  0  0
 49 50  1  0  0  0  0
 49 51  1  0  0  0  0
 48 52  4  0  0  0  0
 52 53  1  0  0  0  0
 52 54  1  0  0  0  0
 35 55  1  0  0  0  0
 55 56  2  0  0  0  0
 57 58  1  0  0  0  0
 57 59  1  0  0  0  0
 59 60  1  0  0  0  0
 59 61  1  0  0  0  0
 61 62  1  0  0  0  0
 61 63  1  0  0  0  0
 61 64  1  0  0  0  0
 64 65  1  0  0  0  0
 64 66  1  0  0  0  0
 64 67  1  0  0  0  0
 67 68  1  0  0  0  0
 67 69  1  0  0  0  0
 67 70  1  0  0  0  0
 70 71  1  0  0  0  0
 70 72  1  0  0  0  0
 70 73  1  0  0  0  0
 73 74  1  0  0  0  0
 73 75  1  0  0  0  0
 73 76  1  0  0  0  0
 59 77  1  0  0  0  0
 77 78  2  0  0  0  0
 79 80  1  0  0  0  0
 79 81  1  0  0  0  0
 81 82  1  0  0  0  0
 81 83  1  0  0  0  0
 83 84  1  0  0  0  0
 83 85  1  0  0  0  0
 83 86  1  0  0  0  0
 86 87  4  0  0  0  0
 87 88  1  0  0  0  0
 87 89  4  0  0  0  0
 89 90  1  0  0  0  0
 89 91  4  0  0  0  0
 91 92  1  0  0  0  0
 91 93  4  0  0  0  0
 93 94  1  0  0  0  0
 86 95  4  0  0  0  0
 93 95  4  0  0  0  0
 95 96  1  0  0  0  0
 81 97  1  0  0  0  0
 97 98  2  0  0  0  0
 99100  1  0  0  0  0
 99101  1  0  0  0  0
101102  1  0  0  0  0
101103  1  0  0  0  0
103104  1  0  0  0  0
103105  1  0  0  0  0
103106  1  0  0  0  0
106107  4  0  0  0  0
107108  1  0  0  0  0
107109  4  0  0  0  0
109110  1  0  0  0  0
109111  4  0  0  0  0
111112  1  0  0  0  0
112113  1  0  0  0  0
111114  4  0  0  0  0
114115  1  0  0  0  0
106116  4  0  0  0  0
114116  4  0  0  0  0
116117  1  0  0  0  0
101118  1  0  0  0  0
118119  2  0  0  0  0
120121  1  0  0  0  0
120122  1  0  0  0  0
122123  1  0  0  0  0
122124  1  0  0  0  0
124125  1  0  0  0  0
124126  1  0  0  0  0
124127  1  0  0  0  0
127128  4  0  0  0  0
128129  2  0  0  0  0
129130  1  0  0  0  0
129131  4  0  0  0  0
131132  1  0  0  0  0
127133  2  0  0  0  0
131133  4  0  0  0  0
133134  1  0  0  0  0
122135  1  0  0  0  0
135136  2  0  0  0  0
137138  1  0  0  0  0
137139  1  0  0  0  0
139140  1  0  0  0  0
139141  1  0  0  0  0
141142  1  0  0  0  0
141143  1  0  0  0  0
143144  1  0  0  0  0
143145  1  0  0  0  0
143146  1  0  0  0  0
141147  1  0  0  0  0
147148  1  0  0  0  0
147149  1  0  0  0  0
147150  1  0  0  0  0
150151  1  0  0  0  0
150152  1  0  0  0  0
150153  1  0  0  0  0
139154  1  0  0  0  0
154155  2  0  0  0  0
154156  4  0  0  0  0
156157  1  0  0  0  0
156158  1  0  0  0  0
158159  1  0  0  0  0
158160  1  0  0  0  0
160161  1  0  0  0  0
160162  1  0  0  0  0
162163  1  0  0  0  0
162164  1  0  0  0  0
162165  1  0  0  0  0
160166  1  0  0  0  0
166167  1  0  0  0  0
166168  1  0  0  0  0
166169  1  0  0  0  0
169170  1  0  0  0  0
169171  1  0  0  0  0
169172  1  0  0  0  0
158173  1  0  0  0  0
173174  2  0  0  0  0
  1175  1  0  0  0  0
 31176  1  0  0  0  0
 33177  1  0  0  0  0
 55178  1  0  0  0  0
 57179  1  0  0  0  0
 77180  1  0  0  0  0
 79181  1  0  0  0  0
 97182  1  0  0  0  0
 99183  1  0  0  0  0
118184  1  0  0  0  0
120185  1  0  0  0  0
135186  1  0  0  0  0
137187  1  0  0  0  0
173188  1  0  0  0  0
M  CHG  1   1   1
M  END
